# shellmound model version 0.post258.dev0+g2de0f7d
# File generated by Flopy version 3.3.4 on 05/19/2021 at 11:49:15.
# via modflow-setup version 0.post258.dev0+g2de0f7d at 2021-05-19 11:49:16
BEGIN options
  CONTINUE
END options

BEGIN timing
  TDIS6  mfsim.tdis
END timing

BEGIN models
  gwf6  shellmound.nam  shellmound
END models

BEGIN exchanges
END exchanges

BEGIN solutiongroup  1
  ims6  mfsim.ims  shellmound
END solutiongroup  1

