# shellmound model version 0.post258.dev0+g2de0f7d
# File generated by Flopy version 3.3.4 on 05/19/2021 at 11:49:15.
# via modflow-setup version 0.post258.dev0+g2de0f7d at 2021-05-19 11:49:16
BEGIN options
  TIME_UNITS  days
  START_DATE_TIME  1998-04-01
END options

BEGIN dimensions
  NPER  19
END dimensions

BEGIN perioddata
  # perlen nstp tsmult
  1.00000000  1       1.00000000  # period 1: 1998-04-01 to 1998-04-01
  3287.00000000  10       1.50000000  # period 2: 1998-04-01 to 2007-04-01
  183.00000000  5       1.50000000  # period 3: 2007-04-01 to 2007-10-01
  183.00000000  5       1.50000000  # period 4: 2007-10-01 to 2008-04-01
  183.00000000  5       1.50000000  # period 5: 2008-04-01 to 2008-10-01
  182.00000000  5       1.50000000  # period 6: 2008-10-01 to 2009-04-01
  183.00000000  5       1.50000000  # period 7: 2009-04-01 to 2009-10-01
  182.00000000  5       1.50000000  # period 8: 2009-10-01 to 2010-04-01
  183.00000000  5       1.50000000  # period 9: 2010-04-01 to 2010-10-01
  182.00000000  5       1.50000000  # period 10: 2010-10-01 to 2011-04-01
  183.00000000  5       1.50000000  # period 11: 2011-04-01 to 2011-10-01
  183.00000000  5       1.50000000  # period 12: 2011-10-01 to 2012-04-01
  183.00000000  5       1.50000000  # period 13: 2012-04-01 to 2012-10-01
  182.00000000  5       1.50000000  # period 14: 2012-10-01 to 2013-04-01
  183.00000000  5       1.50000000  # period 15: 2013-04-01 to 2013-10-01
  182.00000000  5       1.50000000  # period 16: 2013-10-01 to 2014-04-01
  183.00000000  5       1.50000000  # period 17: 2014-04-01 to 2014-10-01
  182.00000000  5       1.50000000  # period 18: 2014-10-01 to 2015-04-01
  183.00000000  5       1.50000000  # period 19: 2015-04-01 to 2015-10-01
END perioddata

