# shellmound model version 0.post258.dev0+g2de0f7d
# File generated by Flopy version 3.3.4 on 05/19/2021 at 11:49:15.
# via modflow-setup version 0.post258.dev0+g2de0f7d at 2021-05-19 11:49:16
BEGIN griddata
  strt  LAYERED
    OPEN/CLOSE  './external/strt_000.dat'  FACTOR  1.0
    OPEN/CLOSE  './external/strt_001.dat'  FACTOR  1.0
    OPEN/CLOSE  './external/strt_002.dat'  FACTOR  1.0
    OPEN/CLOSE  './external/strt_003.dat'  FACTOR  1.0
    OPEN/CLOSE  './external/strt_004.dat'  FACTOR  1.0
    OPEN/CLOSE  './external/strt_005.dat'  FACTOR  1.0
    OPEN/CLOSE  './external/strt_006.dat'  FACTOR  1.0
    OPEN/CLOSE  './external/strt_007.dat'  FACTOR  1.0
    OPEN/CLOSE  './external/strt_008.dat'  FACTOR  1.0
    OPEN/CLOSE  './external/strt_009.dat'  FACTOR  1.0
    OPEN/CLOSE  './external/strt_010.dat'  FACTOR  1.0
    OPEN/CLOSE  './external/strt_011.dat'  FACTOR  1.0
    OPEN/CLOSE  './external/strt_012.dat'  FACTOR  1.0
END griddata

