BEGIN options
  PRINT_INPUT
  PRINT_FLOWS
  SAVE_FLOWS
END options

BEGIN dimensions
  MAXBOUND  340
END dimensions

BEGIN period  1
END period  1

BEGIN period  2
  3 2 4    -384.91656000
  3 2 5    -908.46800000
  4 2 7   -1063.93850000
  4 2 9   -1588.62930000
  4 2 10   -2282.21310000
  4 2 12   -1293.29920000
  4 2 13   -1043.84030000
  4 2 15   -1123.09290000
  4 2 17   -2090.44020000
  4 2 18    -801.07227000
  4 2 20    -599.22410000
  4 2 22    -593.68115000
  4 2 23   -1167.13610000
  4 2 25    -379.14682000
  4 2 26   -2890.55100000
  4 2 28    -549.96936000
  4 2 30    -465.69583000
  4 2 31    -383.10995000
  4 2 33       0.00000000
  4 2 34   -1070.28900000
  3 4 4    -694.15200000
  3 4 5   -1508.88110000
  4 4 7   -1378.80360000
  4 4 9   -1591.22340000
  4 4 10   -1152.16800000
  4 4 12    -758.94450000
  4 4 13   -3006.58500000
  4 4 15   -3573.93730000
  4 4 17    -968.14150000
  4 4 18   -2005.98130000
  4 4 20   -1049.11670000
  4 4 22     -13.31458100
  9 4 23   -6759.64000000
  4 4 25    -483.76498000
  4 4 26    -596.57000000
  4 4 28    -556.99805000
  4 4 30       0.00000000
  4 4 31    -676.55410000
  4 4 33      -2.94495200
  4 4 34    -900.89050000
  3 5 4    -974.66810000
  3 5 5   -1152.95010000
  3 5 7    -936.13990000
  4 5 9   -2615.03830000
  4 5 10   -1668.19960000
  4 5 12   -2498.55100000
  4 5 13   -1324.31510000
  4 5 15   -2624.08760000
  4 5 17   -1929.95740000
  4 5 18   -1732.96180000
  9 5 20   -1365.64150000
  4 5 22    -597.31195000
  9 5 23   -1098.85310000
  4 5 25     -38.72045500
  4 5 26       0.00000000
  4 5 28      -9.89390600
  4 5 30    -199.80367000
  4 5 31    -179.18333000
  4 5 33      -8.43842000
  4 5 34   -1690.59500000
  3 7 4   -1218.72530000
  3 7 5   -1272.36080000
  3 7 7   -1454.46310000
  4 7 9   -2324.22220000
  4 7 10   -1813.91090000
  4 7 12    -931.62695000
  4 7 13   -3228.25510000
  4 7 15   -4196.91900000
  4 7 17   -1915.38940000
  4 7 18   -1193.45870000
  4 7 20   -1498.22170000
  4 7 22    -709.08800000
  4 7 23    -787.63635000
  4 7 25    -688.93640000
  4 7 26     -46.86438000
  4 7 28    -560.27985000
  4 7 30    -897.73956000
  4 7 31    -625.46814000
  4 7 33    -269.28754000
  4 7 34       0.00000000
  3 8 4   -1416.58420000
  3 8 5   -2256.93240000
  3 8 7   -1527.38300000
  9 8 9   -1799.74980000
  4 8 10    -540.91266000
  4 8 12   -2735.10670000
  4 8 13   -1355.64300000
  4 8 15    -764.39630000
  4 8 17   -1721.12890000
  4 8 18   -1818.11520000
  4 8 20   -1878.51120000
  4 8 22   -1149.94950000
  4 8 23    -788.82825000
  4 8 25   -1808.67070000
  4 8 26    -640.94617000
  4 8 28    -669.39325000
  4 8 30   -1048.94320000
  4 8 31       0.00000000
  4 8 33       0.00000000
  4 8 34    -489.79648000
  3 10 4    -765.79987000
  3 10 5   -1284.50230000
  3 10 7   -1915.74450000
  4 10 9   -1824.38430000
  4 10 10   -1656.36160000
  4 10 12   -1712.19510000
  4 10 13   -1834.63070000
  4 10 15   -3851.94630000
  4 10 17   -1935.09220000
  4 10 18   -1271.26040000
  4 10 20   -1077.97900000
  4 10 22    -522.58170000
  4 10 23    -670.12400000
  4 10 25    -667.26715000
  4 10 26    -549.33380000
  4 10 28   -2387.58570000
  4 10 30   -1103.25800000
  4 10 31    -629.73160000
  4 10 33       0.00000000
  4 10 34    -465.27997000
  3 12 4   -1721.00560000
  3 12 5   -2591.01980000
  3 12 7   -1061.24060000
  4 12 9   -1419.53670000
  4 12 10    -815.38110000
  4 12 12   -2210.91300000
  4 12 13    -770.26025000
  4 12 15   -1828.44530000
  4 12 17    -582.15620000
  4 12 18   -1153.24990000
  4 12 20   -1261.95730000
  4 12 22    -747.28740000
  4 12 23    -705.28410000
  4 12 25   -1447.51590000
  4 12 26   -1757.93250000
  4 12 28   -1571.93040000
  4 12 30    -611.34937000
  4 12 31   -1076.53860000
  4 12 33     -15.12119600
  4 12 34       0.00000000
  3 13 4   -2891.44210000
  3 13 5    -694.35020000
  3 13 7   -1610.31350000
  4 13 9   -1464.61520000
  4 13 10   -1398.57980000
  4 13 12   -2206.44460000
  4 13 13   -3672.60470000
  4 13 15   -1114.34140000
  4 13 17       0.00000000
  4 13 18       0.00000000
  4 13 20    -688.58075000
  4 13 22    -680.72394000
  9 13 23    -846.18360000
  4 13 25   -1507.28590000
  4 13 26   -1349.36570000
  4 13 28    -668.93630000
  4 13 30   -1978.01430000
  4 13 31    -218.43616000
  4 13 33     -61.81001300
  4 13 34    -398.66614000
  3 15 4   -1284.17290000
  3 15 5   -1765.87770000
  3 15 7    -897.61320000
  3 15 9   -1026.02080000
  4 15 10   -1132.81570000
  4 15 12   -2512.80420000
  4 15 13   -2238.06300000
  4 15 15    -968.51120000
  4 15 17       0.00000000
  4 15 18       0.00000000
  4 15 20    -465.83844000
  4 15 22    -798.22000000
  4 15 23   -1321.92400000
  4 15 25    -974.51400000
  4 15 26    -281.82623000
  4 15 28     -40.77626000
  4 15 30      -3.41501160
  9 15 31    -963.46655000
  9 15 33    -147.49553000
  9 15 34    -254.25885000
  3 16 4   -1171.43240000
  3 16 5   -1720.82870000
  3 16 7   -1110.51420000
  3 16 9   -3773.42360000
  4 16 10   -1525.07240000
  4 16 12    -536.98140000
  9 16 13   -1996.26510000
  4 16 15   -1285.50060000
  4 16 17   -1521.87490000
  4 16 18    -729.51230000
  4 16 20   -1844.68550000
  4 16 22    -818.48230000
  4 16 23   -1307.80790000
  4 16 25    -829.91710000
  4 16 26       0.00000000
  4 16 28       0.00000000
  4 16 30    -399.73746000
  4 16 31    -625.15686000
  4 16 33    -300.73056000
  4 16 34   -1344.72170000
  3 18 4   -1807.40110000
  3 18 5   -1762.35060000
  3 18 7   -2303.53980000
  3 18 9   -1637.54190000
  3 18 10   -3399.67140000
  4 18 12   -2289.30520000
  4 18 13   -2181.68900000
  4 18 15   -3343.86280000
  4 18 17   -1526.60690000
  4 18 18   -1931.90880000
  4 18 20    -982.06040000
  4 18 22   -2072.25020000
  4 18 23   -1320.10300000
  4 18 25    -715.24850000
  4 18 26    -240.92538000
  4 18 28       0.00000000
  4 18 30    -413.02120000
  4 18 31    -519.49255000
  4 18 33    -442.42825000
  4 18 34   -1704.71370000
  3 20 4   -2354.76700000
  3 20 5   -1524.57570000
  3 20 7   -1614.49800000
  3 20 9   -2918.73440000
  3 20 10   -3764.29200000
  4 20 12   -2430.84620000
  4 20 13    -995.39020000
  4 20 15   -1559.18130000
  4 20 17    -558.47380000
  4 20 18   -1932.90770000
  4 20 20    -952.03510000
  4 20 22   -1729.86960000
  4 20 23   -1495.84310000
  4 20 25    -807.37580000
  4 20 26   -1048.49960000
  4 20 28    -935.50120000
  4 20 30    -725.32770000
  4 20 31    -569.66690000
  4 20 33    -330.53122000
  4 20 34      -1.45548580
  3 21 4   -1055.72510000
  3 21 5   -1487.69230000
  3 21 7   -2113.52270000
  3 21 9   -1157.82620000
  3 21 10   -2710.96630000
  3 21 12   -1174.69560000
  4 21 13   -1143.29380000
  4 21 15   -1178.77370000
  4 21 17   -1493.65660000
  4 21 18   -2436.47500000
  4 21 20   -2244.64800000
  4 21 22   -1945.26370000
  9 21 23    -741.96796000
  4 21 25    -929.13776000
  4 21 26   -1226.46620000
  4 21 28    -504.63452000
  4 21 30   -1143.92260000
  4 21 31   -1197.32690000
  4 21 33   -1059.47240000
  4 21 34     -13.37687900
  3 23 4   -2157.73360000
  3 23 5   -2773.79370000
  3 23 7   -4300.55660000
  3 23 9   -1472.69290000
  3 23 10   -2158.83620000
  3 23 12   -1661.17220000
  4 23 13   -3643.39770000
  4 23 15   -3973.74240000
  4 23 17    -427.64374000
  4 23 18   -3717.02200000
  4 23 20   -6246.13570000
  4 23 22   -2260.39200000
  4 23 23    -912.67350000
  4 23 25   -2488.07060000
  4 23 26   -1390.54030000
  4 23 28   -1851.73440000
  4 23 30    -772.62946000
  4 23 31    -692.28040000
  4 23 33     -77.83169000
  9 23 34   -1134.98750000
  3 24 4   -2145.56880000
  3 24 5   -3539.58570000
  3 24 7   -2486.48700000
  3 24 9   -2167.54350000
  3 24 10   -2398.78880000
  3 24 12   -2189.72500000
  3 24 13   -1571.77750000
  4 24 15   -2128.18700000
  4 24 17    -398.66614000
  4 24 18   -3296.19780000
  4 24 20   -1277.07840000
  4 24 22   -1320.62490000
  4 24 23    -864.16680000
  4 24 25   -2347.08720000
  4 24 26   -1218.57260000
  4 24 28   -1305.41830000
  4 24 30   -1568.48180000
  4 24 31   -1384.86230000
  4 24 33    -201.13455000
  4 24 34    -377.42957000
  3 26 4   -2641.01120000
  3 26 5   -2857.62920000
  3 26 7   -2605.43680000
  3 26 9   -3325.05470000
  3 26 10   -3226.83470000
  3 26 12   -2286.23440000
  3 26 13   -2972.13940000
  4 26 15   -2803.65100000
  4 26 17   -2916.52600000
  4 26 18   -2446.08400000
  4 26 20    -596.91080000
  4 26 22   -1795.26540000
  4 26 23   -3908.10420000
  4 26 25   -2423.85900000
  4 26 26   -1503.89430000
  4 26 28    -632.22350000
  4 26 30   -1561.91330000
  4 26 31    -568.17080000
  4 26 33    -779.14233000
  4 26 34    -531.00653000
  3 28 4   -1421.71790000
  3 28 5   -2118.53220000
  3 28 7   -2431.55200000
  3 28 9   -4920.72600000
  3 28 10   -1624.57540000
  3 28 12    -461.51382000
  3 28 13   -3413.54640000
  3 28 15   -3010.93480000
  4 28 17   -5372.40970000
  4 28 18   -1971.03830000
  4 28 20    -793.35110000
  4 28 22   -1312.70200000
  4 28 23   -2254.82670000
  4 28 25   -1420.50590000
  4 28 26   -1158.26830000
  4 28 28   -1890.98500000
  4 28 30   -1476.14160000
  4 28 31   -3986.66140000
  4 28 33    -797.51166000
  4 28 34       0.00000000
END period  2

BEGIN period  3
  1 28 3   -1176.36730000
  1 28 5    -959.33790000
  1 28 6   -1722.55410000
  1 28 8   -4919.89060000
  1 28 9   -5658.75800000
  1 28 11   -1831.14140000
  1 28 13   -1142.27750000
  1 28 14    -833.09470000
  13 28 16    -163.95435000
  4 28 18    -822.73566000
  13 28 19    -474.84253000
  4 28 21    -234.03185000
  13 28 24    -190.61324000
  13 28 26   -2361.93770000
  4 28 27   -1990.51810000
  4 28 29    -679.19775000
  4 28 30   -1186.68080000
  1 27 3   -1180.28520000
  1 27 5   -1862.74840000
  1 27 6   -7713.55570000
  1 27 8   -4996.69140000
  1 27 9   -6051.98200000
  1 27 11   -3261.45040000
  1 27 13   -1651.96630000
  13 27 14    -724.53687000
  13 27 16    -736.63540000
  4 27 18    -543.95160000
  13 27 19    -667.20355000
  13 27 21    -166.80089000
  13 27 22    -166.80089000
  13 27 24    -195.78625000
  13 27 26    -760.28620000
  13 27 27   -1724.85140000
  13 27 29    -604.89930000
  13 27 30     -28.43597000
  1 25 3   -1351.20260000
  1 25 5   -3525.89200000
  1 25 6   -3942.16900000
  1 25 8   -4384.20600000
  1 25 9   -8609.48100000
  1 25 11   -2019.33860000
  1 25 13    -699.55225000
  1 25 14   -1763.71470000
  4 25 16   -2571.95390000
  13 25 18    -555.04430000
  13 25 19     -43.54899600
  13 25 21    -223.67280000
  13 25 22    -284.35970000
  13 25 24    -135.64877000
  13 25 26    -142.17986000
  4 25 27   -1661.39440000
  13 25 29    -500.14334000
  13 25 30   -1206.34240000
  1 24 3   -1169.61300000
  1 24 5    -656.00323000
  1 24 6   -5691.25340000
  1 24 8   -5904.02930000
  1 24 9   -2578.27080000
  1 24 11   -7450.43900000
  9 24 13   -6865.43300000
  1 24 14   -4774.45460000
  4 24 16   -6110.17720000
  4 24 18   -4593.50930000
  4 24 19   -1000.14330000
  13 24 26    -451.71000000
  13 24 27    -280.54477000
  13 24 29    -637.69960000
  13 24 30   -1247.91710000
  13 24 32    -454.97552000
  13 24 34    -170.61581000
  1 22 3   -1798.38200000
  1 22 5   -3982.13130000
  1 22 6   -4402.67140000
  1 22 8   -1530.98730000
  1 22 9   -3015.62940000
  1 22 11   -1166.93120000
  4 22 13   -3051.54050000
  4 22 14   -2950.60130000
  4 22 16   -4899.71400000
  4 22 18   -3115.67380000
  4 22 19   -4367.49900000
  13 22 30    -284.35970000
  13 22 32   -1160.15230000
  13 22 34    -966.82300000
  1 20 3   -2569.11720000
  1 20 5   -9305.69300000
  1 20 6   -3115.47500000
  1 20 8   -3736.02400000
  1 20 9   -6378.65620000
  4 20 11   -3767.37940000
  4 20 13   -4270.75400000
  4 20 14   -2597.55320000
  13 20 16   -3249.74100000
  13 20 18    -525.63995000
  13 20 19   -1627.43980000
  13 20 21   -2096.63100000
  13 20 22     -83.40044400
  13 20 24    -333.60178000
  13 20 26     -83.40044400
  13 20 30     -85.30791000
  4 20 32    -417.00220000
  13 20 34     -83.40044400
  1 19 3   -5136.91940000
  1 19 5  -10661.83500000
  1 19 6   -3117.19650000
  1 19 8   -4559.33350000
  1 19 9   -2561.21340000
  4 19 11   -3850.71170000
  4 19 13   -4588.82570000
  4 19 14    -683.67610000
  4 19 16   -1288.97990000
  4 19 18   -1779.61670000
  13 19 19    -536.06396000
  13 19 21    -643.27673000
  13 19 22    -321.63837000
  13 19 24    -548.02734000
  1 17 3   -3959.97530000
  1 17 5   -5474.52600000
  1 17 6   -6316.84400000
  1 17 8   -4402.74300000
  1 17 9   -4444.90300000
  4 17 11   -1706.15820000
  13 17 13    -625.59140000
  4 17 14   -1084.20570000
  4 17 16   -5254.22750000
  13 17 18    -561.08954000
  13 17 19    -398.10355000
  13 17 21   -2050.10550000
  4 17 22   -1904.65990000
  13 17 24    -328.16946000
  1 16 3   -6772.57570000
  1 16 5   -6761.06050000
  1 16 6   -6888.52830000
  1 16 8   -4607.39700000
  1 16 9   -3535.64820000
  4 16 11   -1342.62050000
  4 16 13    -344.81180000
  9 16 14    -426.53955000
  4 16 16   -1039.62960000
  13 16 18    -299.73350000
  13 16 19    -485.72314000
  13 16 21   -1131.71610000
  4 16 22   -1543.28600000
  13 16 24    -296.46793000
  1 14 3   -2642.95680000
  1 14 5   -8261.35900000
  1 14 6   -3335.90010000
  4 14 8   -3562.43400000
  13 14 9   -1296.00330000
  13 14 11    -174.19598000
  4 14 13    -757.05190000
  13 14 14    -331.43500000
  13 14 16   -1700.98500000
  4 14 18    -277.82864000
  4 14 19   -2262.07400000
  4 14 21   -3055.56470000
  13 14 22   -1530.77320000
  13 14 24     -53.60639600
  1 12 3   -2055.29370000
  1 12 5   -7900.54350000
  1 12 6   -4389.70560000
  4 12 8   -4304.07200000
  4 12 9   -1916.52800000
  4 12 11   -1379.96470000
  4 12 13    -574.41547000
  13 12 14    -135.64877000
  4 12 16    -107.08241000
  13 12 18    -142.17986000
  13 12 19   -1483.34770000
  4 12 21   -3326.60160000
  13 12 22   -1529.41500000
  1 11 3   -9715.90500000
  1 11 5   -4264.58350000
  1 11 6   -1880.84740000
  4 11 8   -2419.77300000
  13 11 9   -3168.77730000
  4 11 11    -321.63837000
  13 11 13    -990.38750000
  13 11 14   -2473.92940000
  13 11 16   -1848.33800000
  13 11 18    -393.23218000
  13 11 19    -539.12260000
  4 11 21    -550.91620000
  1 9 3   -3256.67940000
  1 9 5   -1040.38280000
  1 9 6   -4592.38300000
  13 9 8   -1596.08360000
  13 9 9   -1241.38610000
  4 9 11    -329.82920000
  4 9 13   -1273.08750000
  4 9 14   -1057.70800000
  13 9 16    -284.35970000
  13 9 18    -327.90870000
  13 9 19    -555.39650000
  1 8 3   -2379.63280000
  1 8 5    -847.42510000
  1 8 6   -7916.90670000
  4 8 8   -1272.13370000
  4 8 9   -2180.17680000
  4 8 11    -868.45294000
  13 8 13    -761.24020000
  13 8 14    -284.35970000
  1 6 3   -3683.46780000
  1 6 5   -2235.51510000
  1 6 6   -3308.07230000
  13 6 8   -3006.78610000
  13 6 9   -2971.21070000
  13 6 11   -3604.69040000
  13 6 13   -1073.08190000
  13 6 34     -83.40044400
  2 4 3   -1547.47470000
  13 4 5   -1076.75200000
  13 4 6   -1962.48600000
  13 4 8   -4198.22560000
  4 4 9   -1909.57240000
  4 4 11   -1636.46220000
  13 4 13    -800.10190000
  4 4 19    -594.57294000
  4 4 21    -936.30340000
  4 4 22    -773.92370000
  13 4 34    -166.80089000
  1 3 3   -2780.65060000
  2 3 5    -366.40207000
  13 3 6    -621.37190000
  13 3 8   -2088.95600000
  4 3 9   -2270.65800000
  13 3 11   -2355.96600000
  13 3 13   -1066.55070000
  4 3 19   -2303.18500000
  4 3 21   -2315.80100000
  4 3 22    -989.56400000
  4 3 24   -1255.18730000
  4 3 26    -143.03705000
  13 3 32    -166.80089000
  9 4 23   -6445.99100000
  10 5 20    -565.54803000
  9 5 23    -121.33201600
  10 8 9    -570.13873000
  10 10 28    -565.54803000
  10 13 23    -565.54803000
  9 13 30    -121.33201600
  9 15 31    -121.33201600
  9 15 33    -121.33201600
  9 15 34    -242.66403000
  10 16 13    -565.54803000
  10 16 20   -1252.42810000
  9 21 23    -121.33201600
  10 23 4    -570.13873000
  10 23 13   -1131.09610000
  9 23 34    -686.88007000
  7 28 4    -151.68626000
  7 28 7    -106.18024400
  10 28 17   -1696.64400000
END period  3

BEGIN period  4
  4 28 18      -2.15690800
  13 28 19      -2.15690800
  4 28 21      -2.15690800
  13 28 24      -2.15690800
  13 28 26      -2.15690800
  4 28 30      -8.62763200
  13 27 16      -2.15690800
  4 27 18     -12.94144800
  13 27 19     -17.25526400
  13 27 21      -4.31381600
  13 27 22      -4.31381600
  13 27 29      -8.62763200
  1 25 8      -2.15690800
  13 25 18      -6.47072400
  13 25 21      -4.31381600
  13 25 29      -2.15690800
  1 24 3      -4.31381600
  13 24 27      -4.31381600
  1 22 9      -2.15690800
  1 22 11      -2.15690800
  4 22 14      -2.15690800
  4 22 16      -4.31381600
  4 22 18      -2.15690800
  13 22 32      -6.47072400
  1 20 8      -2.15690800
  13 20 16      -4.31381600
  13 20 18      -2.15690800
  13 20 21      -4.31381600
  13 20 22      -2.15690800
  13 20 24      -8.62763200
  13 20 26      -2.15690800
  4 20 32     -10.78454000
  13 20 34      -2.15690800
  4 19 13      -2.15690800
  4 19 14      -8.62763200
  4 19 16     -21.56908000
  4 19 18      -8.62763200
  13 19 24      -8.62763200
  4 17 14     -28.03980300
  4 17 16    -135.88521000
  13 17 18      -8.62763200
  1 16 3      -2.15690800
  4 16 16      -8.62763200
  13 16 21      -4.31381600
  4 16 22      -6.47072400
  1 14 3      -2.15690800
  4 14 19      -6.47072400
  13 14 22      -2.15690800
  1 12 5      -2.15690800
  1 11 5      -2.15690800
  1 11 6      -2.15690800
  1 9 3      -2.15690800
  1 8 3      -2.15690800
  1 8 5      -8.62763200
  1 8 6     -15.09835600
  1 6 5     -32.35362200
  1 6 6     -38.82434500
  13 6 34      -2.15690800
  2 4 3     -32.35362200
  13 4 5      -4.31381600
  13 4 34      -4.31381600
  1 3 3     -71.17797000
  13 3 32      -4.31381600
  9 4 23   -6445.99100000
  10 5 20    -565.54803000
  9 5 23    -121.33201600
  10 8 9    -570.13873000
  10 10 28    -565.54803000
  10 13 23    -565.54803000
  9 13 30    -121.33201600
  9 15 31    -121.33201600
  9 15 33    -121.33201600
  9 15 34    -242.66403000
  10 16 13    -565.54803000
  10 16 20   -1252.42810000
  9 21 23    -121.33201600
  10 23 4    -570.13873000
  10 23 13   -1131.09610000
  9 23 34    -686.88007000
  7 28 4    -151.68626000
  7 28 7    -106.18024400
  10 28 17   -1696.64400000
END period  4

BEGIN period  5
  1 28 3   -4133.87900000
  1 28 5   -2230.64670000
  1 28 6   -2005.87720000
  1 28 8   -3202.32370000
  1 28 9  -10986.58600000
  1 28 11   -5134.16600000
  1 28 13   -2188.06420000
  1 28 14   -1272.96140000
  13 28 16    -304.70767000
  4 28 18   -1589.68240000
  13 28 19    -752.89600000
  4 28 21    -428.32486000
  13 28 24    -128.05380000
  13 28 26   -3079.11820000
  4 28 27   -5358.24800000
  4 28 29   -1198.96740000
  4 28 30   -1622.34480000
  13 28 32    -281.21080000
  1 27 3   -1305.93930000
  1 27 5   -1916.57320000
  1 27 6   -5873.76760000
  1 27 8   -6187.95750000
  1 27 9   -4733.15670000
  1 27 11   -5677.10840000
  1 27 13   -2505.95000000
  13 27 14   -1450.63830000
  13 27 16   -1920.80700000
  4 27 18    -188.44720000
  13 27 19    -422.75397000
  13 27 24    -309.14430000
  13 27 26   -1042.17680000
  13 27 27   -4091.16750000
  13 27 29    -385.76767000
  13 27 30    -285.73715000
  1 25 3   -3073.58000000
  1 25 5   -4596.91500000
  1 25 6   -8465.46400000
  1 25 8   -6952.74200000
  1 25 9   -3950.09280000
  1 25 11   -4181.95600000
  1 25 13    -787.37384000
  1 25 14   -2600.51590000
  4 25 16   -4696.39200000
  13 25 18    -389.20210000
  13 25 19    -315.53537000
  13 25 21     -88.32694000
  13 25 22    -561.61847000
  13 25 24    -812.48620000
  13 25 26    -220.81734000
  4 25 27   -2938.88650000
  13 25 29    -525.52500000
  13 25 30   -2262.35000000
  13 25 32    -181.18028000
  4 25 34     -60.39342000
  1 24 3    -946.89044000
  1 24 5   -2562.75560000
  1 24 6   -6691.70560000
  1 24 8   -6566.37840000
  1 24 9   -3923.46440000
  1 24 11   -5062.00730000
  9 24 13   -5820.12200000
  1 24 14   -3460.83060000
  4 24 16   -6653.48700000
  4 24 18   -3523.79830000
  4 24 19   -1385.59860000
  13 24 26    -706.61554000
  13 24 27    -176.65388000
  13 24 29    -883.26935000
  13 24 30   -1987.35620000
  13 24 32   -1104.08670000
  13 24 34    -264.98083000
  1 22 3   -4769.68070000
  1 22 5   -6638.43550000
  1 22 6   -5621.28500000
  1 22 8   -3981.52510000
  1 22 9   -7092.47300000
  1 22 11    -883.26935000
  4 22 13   -6196.62840000
  4 22 14   -6368.40900000
  4 22 16   -9160.64400000
  4 22 18   -4203.73340000
  4 22 19   -4808.79900000
  13 22 30    -502.02810000
  13 22 32   -1743.13160000
  13 22 34   -1545.72140000
  1 20 3   -4141.11900000
  1 20 5   -3003.11600000
  1 20 6   -7246.63230000
  1 20 8   -2828.57900000
  1 20 9   -2159.57350000
  4 20 11   -3482.62000000
  4 20 13   -6082.17330000
  4 20 14   -2773.48170000
  13 20 16   -2590.17000000
  13 20 18    -973.79956000
  13 20 19   -1685.75050000
  13 20 21   -2176.91460000
  13 20 24    -241.57368000
  13 20 26    -181.18028000
  13 20 27     -60.39342000
  13 20 30    -132.49042000
  4 20 32    -301.96713000
  13 20 34     -60.39342000
  1 19 3  -10150.08200000
  1 19 5   -5639.06150000
  1 19 6   -6156.40900000
  1 19 8   -3624.71000000
  1 19 9   -5939.53600000
  4 19 11   -2365.25340000
  4 19 13   -2869.29100000
  4 19 14    -731.09515000
  4 19 16   -1217.69640000
  4 19 18   -2365.56450000
  13 19 19   -1088.45730000
  13 19 21    -768.32275000
  13 19 22    -384.16138000
  13 19 24    -627.64886000
  13 19 30    -120.78684000
  1 17 3   -8224.78200000
  1 17 5   -9647.87100000
  1 17 6   -6986.23630000
  1 17 8  -11366.47700000
  1 17 9   -5907.78300000
  4 17 11   -5081.46500000
  13 17 13   -1258.55750000
  4 17 14    -483.14737000
  4 17 16   -3753.57300000
  13 17 18    -493.95800000
  13 17 19    -960.40350000
  13 17 21   -2945.23750000
  4 17 22   -2304.96830000
  13 17 24    -512.21520000
  13 17 26    -120.78684000
  13 17 27    -264.98083000
  13 17 29    -120.78684000
  13 17 34     -60.39342000
  1 16 3   -5702.15970000
  1 16 5   -5570.91700000
  1 16 6   -4376.41750000
  1 16 8   -6004.95360000
  1 16 9   -3218.16200000
  4 16 11   -2535.05980000
  4 16 13    -564.27210000
  9 16 14    -662.45200000
  4 16 16   -1247.56740000
  13 16 18    -388.59802000
  13 16 19    -600.54205000
  13 16 21   -1280.53800000
  4 16 22   -1909.90670000
  13 16 24    -364.29797000
  13 16 26    -362.36057000
  8 16 27    -120.78684000
  9 16 32     -60.39342000
  9 16 34     -60.39342000
  1 14 3   -5731.18550000
  1 14 5   -6668.71000000
  1 14 6   -4873.66750000
  4 14 8   -5675.33700000
  13 14 9    -803.07990000
  13 14 11    -512.21520000
  4 14 13   -2137.18750000
  13 14 14    -576.24207000
  13 14 16   -2733.29320000
  4 14 18    -472.48834000
  4 14 19   -2362.44170000
  4 14 21   -3450.89900000
  13 14 22   -1900.94350000
  13 14 24    -124.42033000
  13 14 26     -60.39342000
  13 14 27     -60.39342000
  13 14 29    -543.54080000
  13 14 30    -301.96713000
  13 14 32    -362.36057000
  9 14 34    -422.75397000
  1 12 3   -2227.10820000
  1 12 5   -5734.95750000
  1 12 6   -2154.73100000
  4 12 8   -2921.14000000
  4 12 9   -2068.43700000
  4 12 11   -1678.21190000
  4 12 13    -768.72614000
  13 12 14    -192.08069000
  4 12 16    -176.65388000
  13 12 18    -300.27103000
  13 12 19   -2791.21310000
  4 12 21   -4314.10200000
  13 12 22   -1856.78000000
  13 12 26    -120.78684000
  13 12 29    -724.72110000
  1 11 3   -4632.40800000
  1 11 5   -7298.36500000
  1 11 6   -3921.93500000
  4 11 8   -3739.85960000
  13 11 9   -2892.60570000
  4 11 11    -432.76150000
  13 11 13   -1728.88570000
  13 11 14   -4063.03900000
  13 11 16   -2826.46220000
  13 11 18    -761.76917000
  13 11 19    -834.82670000
  4 11 21    -848.66974000
  13 11 24     -60.39342000
  13 11 26    -120.78684000
  13 11 29    -120.78684000
  1 9 3   -8647.45200000
  1 9 5   -1841.93180000
  1 9 6   -6624.51700000
  13 9 8   -2685.18550000
  13 9 9   -1894.59270000
  4 9 11    -460.07172000
  4 9 13   -2075.68330000
  4 9 14   -1369.06760000
  13 9 16    -441.63467000
  13 9 18    -529.96170000
  13 9 19    -883.26935000
  13 9 24     -60.39342000
  1 8 3   -3114.72850000
  1 8 5    -389.90262000
  1 8 6   -7758.93400000
  4 8 8   -1969.60970000
  4 8 9   -2340.66400000
  4 8 11   -1512.54830000
  13 8 13   -1236.57710000
  13 8 14    -441.63467000
  13 8 19    -543.54080000
  13 8 22    -120.78684000
  13 8 26    -241.57368000
  8 8 30     -60.39342000
  1 6 3   -4835.19100000
  1 6 5   -1192.41370000
  1 6 6   -2932.07960000
  13 6 8   -2581.34500000
  13 6 9   -2956.63300000
  13 6 11   -3510.89480000
  13 6 13   -1280.74060000
  13 6 24    -181.18028000
  13 6 34     -60.39342000
  2 4 3    -895.24230000
  13 4 5   -1620.73860000
  13 4 6   -2662.71300000
  13 4 8   -4061.79080000
  4 4 9   -2576.90820000
  4 4 11   -2895.12620000
  13 4 13   -1719.27660000
  4 4 19   -1236.57710000
  4 4 21   -1756.68580000
  4 4 22    -690.25226000
  1 3 3    -104.55689000
  2 3 5    -618.28860000
  13 3 6    -593.98850000
  13 3 8   -2548.86720000
  4 3 9   -3656.49200000
  13 3 11   -4091.37040000
  13 3 13   -1340.33090000
  4 3 19   -2790.39280000
  4 3 21   -3673.66240000
  4 3 22   -1148.25020000
  4 3 24   -1413.23110000
  4 3 26    -176.65388000
  13 3 32    -120.78684000
  9 4 23   -6445.99100000
  10 5 20    -565.54803000
  9 5 23    -121.33201600
  10 8 9    -570.13873000
  10 10 28    -565.54803000
  10 13 23    -565.54803000
  9 13 30    -121.33201600
  9 15 31    -121.33201600
  9 15 33    -121.33201600
  9 15 34    -242.66403000
  10 16 13    -565.54803000
  10 16 20   -1252.42810000
  9 21 23    -121.33201600
  10 23 4    -570.13873000
  10 23 13   -1131.09610000
  9 23 34    -686.88007000
  7 28 4    -151.68626000
  7 28 7    -106.18024400
  10 28 17   -1696.64400000
END period  5

BEGIN period  6
  9 4 23   -6445.99100000
  10 5 20    -565.54803000
  9 5 23    -121.33201600
  10 8 9    -570.13873000
  10 10 28    -565.54803000
  10 13 23    -565.54803000
  9 13 30    -121.33201600
  9 15 31    -121.33201600
  9 15 33    -121.33201600
  9 15 34    -242.66403000
  10 16 13    -565.54803000
  10 16 20   -1252.42810000
  9 21 23    -121.33201600
  10 23 4    -570.13873000
  10 23 13   -1131.09610000
  9 23 34    -686.88007000
  7 28 4    -151.68626000
  7 28 7    -106.18024400
  10 28 17   -1696.64400000
END period  6

BEGIN period  7
  1 28 3   -3018.58060000
  1 28 5   -1173.40590000
  1 28 6   -1596.03990000
  1 28 8   -2530.95170000
  1 28 9  -10660.81600000
  1 28 11   -3812.63400000
  1 28 13   -1237.14260000
  1 28 14    -807.86990000
  13 28 16    -157.09479000
  4 28 18    -706.92660000
  13 28 19    -366.55450000
  4 28 21    -183.27725000
  13 28 26   -2235.01200000
  4 28 27   -1832.77270000
  4 28 29    -721.72540000
  4 28 30    -991.14710000
  13 28 32    -130.91232000
  13 28 34     -48.57835800
  1 27 3   -4392.96240000
  1 27 5   -2193.63550000
  1 27 6   -2018.32670000
  1 27 8   -3396.89060000
  1 27 9   -3214.05660000
  1 27 11   -3497.00680000
  1 27 13   -2117.92800000
  13 27 14   -1054.22470000
  13 27 16    -770.79504000
  4 27 18    -100.94329000
  13 27 19    -291.47015000
  13 27 24    -242.89180000
  13 27 26    -523.64930000
  13 27 27   -1648.29710000
  13 27 29    -254.25153000
  13 27 30    -220.49590000
  13 27 34     -48.57835800
  1 25 3   -1376.28700000
  1 25 5   -4443.05030000
  1 25 6   -5186.40500000
  1 25 8   -3221.58150000
  1 25 9   -2896.41600000
  1 25 11   -2790.55960000
  1 25 13   -2611.65600000
  1 25 14   -2489.97050000
  4 25 16   -2386.13940000
  13 25 18    -322.51767000
  13 25 19    -149.52164000
  13 25 21     -52.36493300
  13 25 22    -329.01233000
  13 25 24    -288.00710000
  13 25 26    -130.91232000
  4 25 27   -1466.21800000
  13 25 29    -362.76797000
  13 25 30   -1309.12330000
  13 25 32     -48.57835800
  1 24 3    -366.55450000
  1 24 5    -609.02690000
  1 24 6   -6665.14550000
  1 24 8   -5906.99170000
  1 24 9   -4677.55470000
  1 24 11   -3721.32500000
  9 24 13   -7908.24300000
  1 24 14   -5197.18950000
  4 24 16   -3736.91530000
  4 24 18   -2918.61990000
  4 24 19    -314.18958000
  13 24 26    -104.72986600
  13 24 27    -104.72986600
  13 24 29    -680.42053000
  13 24 30   -1174.42440000
  13 24 32    -628.37915000
  13 24 34    -157.09479000
  1 22 3   -1098.52530000
  1 22 5   -3429.16020000
  1 22 6   -3370.06100000
  1 22 8   -3056.51830000
  1 22 9   -1593.34390000
  1 22 11   -2652.39750000
  4 22 13   -5170.46830000
  4 22 14   -5375.37400000
  4 22 16   -1544.39400000
  4 22 18   -2025.15670000
  4 22 19    -157.09479000
  13 22 30    -261.82465000
  13 22 32   -1106.88930000
  13 22 34    -890.20386000
  1 20 3   -2969.63100000
  1 20 5   -7281.00240000
  1 20 6   -2907.39200000
  1 20 8   -1850.98660000
  1 20 9   -3333.14200000
  4 20 11   -2719.56130000
  4 20 13   -4815.29640000
  4 20 14    -437.13336000
  13 20 16     -26.18246700
  13 20 18    -239.05731000
  13 20 19    -130.91232000
  13 20 21    -759.29150000
  13 20 24    -145.73508000
  13 20 26     -48.57835800
  13 20 27     -48.57835800
  13 20 30     -78.54739000
  4 20 32    -194.31343000
  13 20 34     -48.57835800
  1 19 3   -3478.85280000
  1 19 5   -6254.19400000
  1 19 6   -2998.46140000
  1 19 8   -1839.60280000
  1 19 9   -7213.83840000
  4 19 11   -2444.07620000
  4 19 13   -2806.07740000
  4 19 14    -302.82990000
  4 19 16    -643.20190000
  4 19 18   -1622.57000000
  13 19 19    -288.00710000
  13 19 21    -291.47015000
  13 19 22    -157.09479000
  13 19 24    -347.62164000
  1 17 3   -3388.92160000
  1 17 5   -5022.47950000
  1 17 6   -2647.84400000
  1 17 8   -2232.33980000
  1 17 9   -8726.72950000
  4 17 11   -1492.40060000
  13 17 13    -602.19670000
  4 17 14    -653.89060000
  4 17 16   -2111.24150000
  13 17 18    -452.35150000
  13 17 19    -392.73697000
  13 17 21   -1764.29080000
  4 17 22   -1345.69480000
  13 17 24    -235.64220000
  13 17 26     -97.15671500
  13 17 27    -157.09479000
  13 17 34     -48.57835800