# shellmound model version 0.post258.dev0+g2de0f7d
# File generated by Flopy version 3.3.4 on 05/19/2021 at 11:49:16.
# via modflow-setup version 0.post258.dev0+g2de0f7d at 2021-05-19 11:49:16
BEGIN options
  DIGITS  10
  PRINT_INPUT
END options

BEGIN continuous  FILEOUT  shellmound.head.obs
  usgs:333145090261901  HEAD  1 28 12
  usgs:333145090261901  HEAD  2 28 12
  usgs:333145090261901  HEAD  3 28 12
  usgs:333145090261901  HEAD  4 28 12
  usgs:333145090261901  HEAD  5 28 12
  usgs:333145090261901  HEAD  6 28 12
  usgs:333145090261901  HEAD  7 28 12
  usgs:333145090261901  HEAD  8 28 12
  usgs:333145090261901  HEAD  9 28 12
  usgs:333145090261901  HEAD  10 28 12
  usgs:333145090261901  HEAD  11 28 12
  usgs:333145090261901  HEAD  12 28 12
  usgs:333145090261901  HEAD  13 28 12
  usgs:333218090271101  HEAD  1 27 11
  usgs:333218090271101  HEAD  2 27 11
  usgs:333218090271101  HEAD  3 27 11
  usgs:333218090271101  HEAD  4 27 11
  usgs:333218090271101  HEAD  5 27 11
  usgs:333218090271101  HEAD  6 27 11
  usgs:333218090271101  HEAD  7 27 11
  usgs:333218090271101  HEAD  8 27 11
  usgs:333218090271101  HEAD  9 27 11
  usgs:333218090271101  HEAD  10 27 11
  usgs:333218090271101  HEAD  11 27 11
  usgs:333218090271101  HEAD  12 27 11
  usgs:333218090271101  HEAD  13 27 11
  usgs:333229090294501  HEAD  1 27 7
  usgs:333229090294501  HEAD  2 27 7
  usgs:333229090294501  HEAD  3 27 7
  usgs:333229090294501  HEAD  4 27 7
  usgs:333229090294501  HEAD  5 27 7
  usgs:333229090294501  HEAD  6 27 7
  usgs:333229090294501  HEAD  7 27 7
  usgs:333229090294501  HEAD  8 27 7
  usgs:333229090294501  HEAD  9 27 7
  usgs:333229090294501  HEAD  10 27 7
  usgs:333229090294501  HEAD  11 27 7
  usgs:333229090294501  HEAD  12 27 7
  usgs:333229090294501  HEAD  13 27 7
  usgs:333236090213801  HEAD  4 26 19
  usgs:333236090213801  HEAD  5 26 19
  usgs:333236090213801  HEAD  6 26 19
  usgs:333236090213801  HEAD  7 26 19
  usgs:333236090213801  HEAD  8 26 19
  usgs:333236090213801  HEAD  9 26 19
  usgs:333236090213801  HEAD  10 26 19
  usgs:333236090213801  HEAD  11 26 19
  usgs:333236090213801  HEAD  12 26 19
  usgs:333236090213801  HEAD  13 26 19
  usgs:333240090155001  HEAD  4 26 28
  usgs:333240090155001  HEAD  5 26 28
  usgs:333240090155001  HEAD  6 26 28
  usgs:333240090155001  HEAD  7 26 28
  usgs:333240090155001  HEAD  8 26 28
  usgs:333240090155001  HEAD  9 26 28
  usgs:333240090155001  HEAD  10 26 28
  usgs:333240090155001  HEAD  11 26 28
  usgs:333240090155001  HEAD  12 26 28
  usgs:333240090155001  HEAD  13 26 28
  usgs:333350090215801  HEAD  4 24 19
  usgs:333350090215801  HEAD  5 24 19
  usgs:333350090215801  HEAD  6 24 19
  usgs:333350090215801  HEAD  7 24 19
  usgs:333350090215801  HEAD  8 24 19
  usgs:333350090215801  HEAD  9 24 19
  usgs:333350090215801  HEAD  10 24 19
  usgs:333350090215801  HEAD  11 24 19
  usgs:333350090215801  HEAD  12 24 19
  usgs:333350090215801  HEAD  13 24 19
  usgs:333351090291402  HEAD  1 25 8
  usgs:333351090291402  HEAD  2 25 8
  usgs:333351090291402  HEAD  3 25 8
  usgs:333351090291402  HEAD  4 25 8
  usgs:333351090291402  HEAD  5 25 8
  usgs:333351090291402  HEAD  6 25 8
  usgs:333351090291402  HEAD  7 25 8
  usgs:333351090291402  HEAD  8 25 8
  usgs:333351090291402  HEAD  9 25 8
  usgs:333351090291402  HEAD  10 25 8
  usgs:333351090291402  HEAD  11 25 8
  usgs:333351090291402  HEAD  12 25 8
  usgs:333351090291402  HEAD  13 25 8
  usgs:333402090240301  HEAD  4 24 16
  usgs:333402090240301  HEAD  5 24 16
  usgs:333402090240301  HEAD  6 24 16
  usgs:333402090240301  HEAD  7 24 16
  usgs:333402090240301  HEAD  8 24 16
  usgs:333402090240301  HEAD  9 24 16
  usgs:333402090240301  HEAD  10 24 16
  usgs:333402090240301  HEAD  11 24 16
  usgs:333402090240301  HEAD  12 24 16
  usgs:333402090240301  HEAD  13 24 16
  usgs:333411090281501  HEAD  1 24 9
  usgs:333411090281501  HEAD  2 24 9
  usgs:333411090281501  HEAD  3 24 9
  usgs:333411090281501  HEAD  4 24 9
  usgs:333411090281501  HEAD  5 24 9
  usgs:333411090281501  HEAD  6 24 9
  usgs:333411090281501  HEAD  7 24 9
  usgs:333411090281501  HEAD  8 24 9
  usgs:333411090281501  HEAD  9 24 9
  usgs:333411090281501  HEAD  10 24 9
  usgs:333411090281501  HEAD  11 24 9
  usgs:333411090281501  HEAD  12 24 9
  usgs:333411090281501  HEAD  13 24 9
  usgs:333427090294201  HEAD  1 24 7
  usgs:333427090294201  HEAD  2 24 7
  usgs:333427090294201  HEAD  3 24 7
  usgs:333427090294201  HEAD  4 24 7
  usgs:333427090294201  HEAD  5 24 7
  usgs:333427090294201  HEAD  6 24 7
  usgs:333427090294201  HEAD  7 24 7
  usgs:333427090294201  HEAD  8 24 7
  usgs:333427090294201  HEAD  9 24 7
  usgs:333427090294201  HEAD  10 24 7
  usgs:333427090294201  HEAD  11 24 7
  usgs:333427090294201  HEAD  12 24 7
  usgs:333427090294201  HEAD  13 24 7
  usgs:333427090294202  HEAD  1 24 7
  usgs:333427090294202  HEAD  2 24 7
  usgs:333427090294202  HEAD  3 24 7
  usgs:333427090294202  HEAD  4 24 7
  usgs:333427090294202  HEAD  5 24 7
  usgs:333427090294202  HEAD  6 24 7
  usgs:333427090294202  HEAD  7 24 7
  usgs:333427090294202  HEAD  8 24 7
  usgs:333427090294202  HEAD  9 24 7
  usgs:333427090294202  HEAD  10 24 7
  usgs:333427090294202  HEAD  11 24 7
  usgs:333427090294202  HEAD  12 24 7
  usgs:333427090294202  HEAD  13 24 7
  usgs:333436090253501  HEAD  4 23 13
  usgs:333436090253501  HEAD  5 23 13
  usgs:333436090253501  HEAD  6 23 13
  usgs:333436090253501  HEAD  7 23 13
  usgs:333436090253501  HEAD  8 23 13
  usgs:333436090253501  HEAD  9 23 13
  usgs:333436090253501  HEAD  10 23 13
  usgs:333436090253501  HEAD  11 23 13
  usgs:333436090253501  HEAD  12 23 13
  usgs:333436090253501  HEAD  13 23 13
  usgs:333508090313601  HEAD  1 23 4
  usgs:333508090313601  HEAD  2 23 4
  usgs:333508090313601  HEAD  3 23 4
  usgs:333508090313601  HEAD  4 23 4
  usgs:333508090313601  HEAD  5 23 4
  usgs:333508090313601  HEAD  6 23 4
  usgs:333508090313601  HEAD  7 23 4
  usgs:333508090313601  HEAD  8 23 4
  usgs:333508090313601  HEAD  9 23 4
  usgs:333508090313601  HEAD  10 23 4
  usgs:333508090313601  HEAD  11 23 4
  usgs:333508090313601  HEAD  12 23 4
  usgs:333508090313601  HEAD  13 23 4
  usgs:333600090205401  HEAD  4 20 20
  usgs:333600090205401  HEAD  5 20 20
  usgs:333600090205401  HEAD  6 20 20
  usgs:333600090205401  HEAD  7 20 20
  usgs:333600090205401  HEAD  8 20 20
  usgs:333600090205401  HEAD  9 20 20
  usgs:333600090205401  HEAD  10 20 20
  usgs:333600090205401  HEAD  11 20 20
  usgs:333600090205401  HEAD  12 20 20
  usgs:333600090205401  HEAD  13 20 20
  usgs:333603090164301  HEAD  4 20 27
  usgs:333603090164301  HEAD  5 20 27
  usgs:333603090164301  HEAD  6 20 27
  usgs:333603090164301  HEAD  7 20 27
  usgs:333603090164301  HEAD  8 20 27
  usgs:333603090164301  HEAD  9 20 27
  usgs:333603090164301  HEAD  10 20 27
  usgs:333603090164301  HEAD  11 20 27
  usgs:333603090164301  HEAD  12 20 27
  usgs:333603090164301  HEAD  13 20 27
  usgs:333606090194801  HEAD  4 20 22
  usgs:333606090194801  HEAD  5 20 22
  usgs:333606090194801  HEAD  6 20 22
  usgs:333606090194801  HEAD  7 20 22
  usgs:333606090194801  HEAD  8 20 22
  usgs:333606090194801  HEAD  9 20 22
  usgs:333606090194801  HEAD  10 20 22
  usgs:333606090194801  HEAD  11 20 22
  usgs:333606090194801  HEAD  12 20 22
  usgs:333606090194801  HEAD  13 20 22
  usgs:333611090215901  HEAD  4 20 18
  usgs:333611090215901  HEAD  5 20 18
  usgs:333611090215901  HEAD  6 20 18
  usgs:333611090215901  HEAD  7 20 18
  usgs:333611090215901  HEAD  8 20 18
  usgs:333611090215901  HEAD  9 20 18
  usgs:333611090215901  HEAD  10 20 18
  usgs:333611090215901  HEAD  11 20 18
  usgs:333611090215901  HEAD  12 20 18
  usgs:333611090215901  HEAD  13 20 18
  usgs:333628090313501  HEAD  1 20 4
  usgs:333628090313501  HEAD  2 20 4
  usgs:333628090313501  HEAD  3 20 4
  usgs:333628090313501  HEAD  4 20 4
  usgs:333628090313501  HEAD  5 20 4
  usgs:333628090313501  HEAD  6 20 4
  usgs:333628090313501  HEAD  7 20 4
  usgs:333628090313501  HEAD  8 20 4
  usgs:333628090313501  HEAD  9 20 4
  usgs:333628090313501  HEAD  10 20 4
  usgs:333628090313501  HEAD  11 20 4
  usgs:333628090313501  HEAD  12 20 4
  usgs:333628090313501  HEAD  13 20 4
  usgs:333629090292901  HEAD  1 20 7
  usgs:333629090292901  HEAD  2 20 7
  usgs:333629090292901  HEAD  3 20 7
  usgs:333629090292901  HEAD  4 20 7
  usgs:333629090292901  HEAD  5 20 7
  usgs:333629090292901  HEAD  6 20 7
  usgs:333629090292901  HEAD  7 20 7
  usgs:333629090292901  HEAD  8 20 7
  usgs:333629090292901  HEAD  9 20 7
  usgs:333629090292901  HEAD  10 20 7
  usgs:333629090292901  HEAD  11 20 7
  usgs:333629090292901  HEAD  12 20 7
  usgs:333629090292901  HEAD  13 20 7
  usgs:333629090313501  HEAD  1 20 4
  usgs:333629090313501  HEAD  2 20 4
  usgs:333629090313501  HEAD  3 20 4
  usgs:333629090313501  HEAD  4 20 4
  usgs:333629090313501  HEAD  5 20 4
  usgs:333629090313501  HEAD  6 20 4
  usgs:333629090313501  HEAD  7 20 4
  usgs:333629090313501  HEAD  8 20 4
  usgs:333629090313501  HEAD  9 20 4
  usgs:333629090313501  HEAD  10 20 4
  usgs:333629090313501  HEAD  11 20 4
  usgs:333629090313501  HEAD  12 20 4
  usgs:333629090313501  HEAD  13 20 4
  usgs:333635090202901  HEAD  4 19 21
  usgs:333635090202901  HEAD  5 19 21
  usgs:333635090202901  HEAD  6 19 21
  usgs:333635090202901  HEAD  7 19 21
  usgs:333635090202901  HEAD  8 19 21
  usgs:333635090202901  HEAD  9 19 21
  usgs:333635090202901  HEAD  10 19 21
  usgs:333635090202901  HEAD  11 19 21
  usgs:333635090202901  HEAD  12 19 21
  usgs:333635090202901  HEAD  13 19 21
  usgs:333653090240201  HEAD  4 19 15
  usgs:333653090240201  HEAD  5 19 15
  usgs:333653090240201  HEAD  6 19 15
  usgs:333653090240201  HEAD  7 19 15
  usgs:333653090240201  HEAD  8 19 15
  usgs:333653090240201  HEAD  9 19 15
  usgs:333653090240201  HEAD  10 19 15
  usgs:333653090240201  HEAD  11 19 15
  usgs:333653090240201  HEAD  12 19 15
  usgs:333653090240201  HEAD  13 19 15
  usgs:333742090303801  HEAD  1 18 4
  usgs:333742090303801  HEAD  2 18 4
  usgs:333742090303801  HEAD  3 18 4
  usgs:333742090303801  HEAD  4 18 4
  usgs:333742090303801  HEAD  5 18 4
  usgs:333742090303801  HEAD  6 18 4
  usgs:333742090303801  HEAD  7 18 4
  usgs:333742090303801  HEAD  8 18 4
  usgs:333742090303801  HEAD  9 18 4
  usgs:333742090303801  HEAD  10 18 4
  usgs:333742090303801  HEAD  11 18 4
  usgs:333742090303801  HEAD  12 18 4
  usgs:333742090303801  HEAD  13 18 4
  usgs:333803090261201  HEAD  4 17 12
  usgs:333803090261201  HEAD  5 17 12
  usgs:333803090261201  HEAD  6 17 12
  usgs:333803090261201  HEAD  7 17 12
  usgs:333803090261201  HEAD  8 17 12
  usgs:333803090261201  HEAD  9 17 12
  usgs:333803090261201  HEAD  10 17 12
  usgs:333803090261201  HEAD  11 17 12
  usgs:333803090261201  HEAD  12 17 12
  usgs:333803090261201  HEAD  13 17 12
  usgs:333804090202701  HEAD  4 16 21
  usgs:333804090202701  HEAD  5 16 21
  usgs:333804090202701  HEAD  6 16 21
  usgs:333804090202701  HEAD  7 16 21
  usgs:333804090202701  HEAD  8 16 21
  usgs:333804090202701  HEAD  9 16 21
  usgs:333804090202701  HEAD  10 16 21
  usgs:333804090202701  HEAD  11 16 21
  usgs:333804090202701  HEAD  12 16 21
  usgs:333804090202701  HEAD  13 16 21
  usgs:333823090230801  HEAD  4 16 16
  usgs:333823090230801  HEAD  5 16 16
  usgs:333823090230801  HEAD  6 16 16
  usgs:333823090230801  HEAD  7 16 16
  usgs:333823090230801  HEAD  8 16 16
  usgs:333823090230801  HEAD  9 16 16
  usgs:333823090230801  HEAD  10 16 16
  usgs:333823090230801  HEAD  11 16 16
  usgs:333823090230801  HEAD  12 16 16
  usgs:333823090230801  HEAD  13 16 16
  usgs:333845090251401  HEAD  4 15 13
  usgs:333845090251401  HEAD  5 15 13
  usgs:333845090251401  HEAD  6 15 13
  usgs:333845090251401  HEAD  7 15 13
  usgs:333845090251401  HEAD  8 15 13
  usgs:333845090251401  HEAD  9 15 13
  usgs:333845090251401  HEAD  10 15 13
  usgs:333845090251401  HEAD  11 15 13
  usgs:333845090251401  HEAD  12 15 13
  usgs:333845090251401  HEAD  13 15 13
  usgs:333904090123801  HEAD  4 14 32
  usgs:333904090123801  HEAD  5 14 32
  usgs:333904090123801  HEAD  6 14 32
  usgs:333904090123801  HEAD  7 14 32
  usgs:333904090123801  HEAD  8 14 32
  usgs:333904090123801  HEAD  9 14 32
  usgs:333904090123801  HEAD  10 14 32
  usgs:333904090123801  HEAD  11 14 32
  usgs:333904090123801  HEAD  12 14 32
  usgs:333904090123801  HEAD  13 14 32
  usgs:333909090314801  HEAD  1 15 3
  usgs:333909090314801  HEAD  2 15 3
  usgs:333909090314801  HEAD  3 15 3
  usgs:333909090314801  HEAD  4 15 3
  usgs:333909090314801  HEAD  5 15 3
  usgs:333909090314801  HEAD  6 15 3
  usgs:333909090314801  HEAD  7 15 3
  usgs:333909090314801  HEAD  8 15 3
  usgs:333909090314801  HEAD  9 15 3
  usgs:333909090314801  HEAD  10 15 3
  usgs:333909090314801  HEAD  11 15 3
  usgs:333909090314801  HEAD  12 15 3
  usgs:333909090314801  HEAD  13 15 3
  usgs:333928090353801  HEAD  1 14 6
  usgs:333928090353801  HEAD  2 14 6
  usgs:333928090353801  HEAD  3 14 6
  usgs:333928090353801  HEAD  4 14 6
  usgs:333928090353801  HEAD  5 14 6
  usgs:333928090353801  HEAD  6 14 6
  usgs:333928090353801  HEAD  7 14 6
  usgs:333928090353801  HEAD  8 14 6
  usgs:333928090353801  HEAD  9 14 6
  usgs:333928090353801  HEAD  10 14 6
  usgs:333928090353801  HEAD  11 14 6
  usgs:333928090353801  HEAD  12 14 6
  usgs:333928090353801  HEAD  13 14 6
  usgs:333950090230001  HEAD  4 13 16
  usgs:333950090230001  HEAD  5 13 16
  usgs:333950090230001  HEAD  6 13 16
  usgs:333950090230001  HEAD  7 13 16
  usgs:333950090230001  HEAD  8 13 16
  usgs:333950090230001  HEAD  9 13 16
  usgs:333950090230001  HEAD  10 13 16
  usgs:333950090230001  HEAD  11 13 16
  usgs:333950090230001  HEAD  12 13 16
  usgs:333950090230001  HEAD  13 13 16
  usgs:333952090133501  HEAD  4 12 30
  usgs:333952090133501  HEAD  5 12 30
  usgs:333952090133501  HEAD  6 12 30
  usgs:333952090133501  HEAD  7 12 30
  usgs:333952090133501  HEAD  8 12 30
  usgs:333952090133501  HEAD  9 12 30
  usgs:333952090133501  HEAD  10 12 30
  usgs:333952090133501  HEAD  11 12 30
  usgs:333952090133501  HEAD  12 12 30
  usgs:333952090133501  HEAD  13 12 30
  usgs:334039090281601  HEAD  4 12 8
  usgs:334039090281601  HEAD  5 12 8
  usgs:334039090281601  HEAD  6 12 8
  usgs:334039090281601  HEAD  7 12 8
  usgs:334039090281601  HEAD  8 12 8
  usgs:334039090281601  HEAD  9 12 8
  usgs:334039090281601  HEAD  10 12 8
  usgs:334039090281601  HEAD  11 12 8
  usgs:334039090281601  HEAD  12 12 8
  usgs:334039090281601  HEAD  13 12 8
  usgs:334107090253701  HEAD  4 11 12
  usgs:334107090253701  HEAD  5 11 12
  usgs:334107090253701  HEAD  6 11 12
  usgs:334107090253701  HEAD  7 11 12
  usgs:334107090253701  HEAD  8 11 12
  usgs:334107090253701  HEAD  9 11 12
  usgs:334107090253701  HEAD  10 11 12
  usgs:334107090253701  HEAD  11 11 12
  usgs:334107090253701  HEAD  12 11 12
  usgs:334107090253701  HEAD  13 11 12
  usgs:334107090292801  HEAD  1 11 6
  usgs:334107090292801  HEAD  2 11 6
  usgs:334107090292801  HEAD  3 11 6
  usgs:334107090292801  HEAD  4 11 6
  usgs:334107090292801  HEAD  5 11 6
  usgs:334107090292801  HEAD  6 11 6
  usgs:334107090292801  HEAD  7 11 6
  usgs:334107090292801  HEAD  8 11 6
  usgs:334107090292801  HEAD  9 11 6
  usgs:334107090292801  HEAD  10 11 6
  usgs:334107090292801  HEAD  11 11 6
  usgs:334107090292801  HEAD  12 11 6
  usgs:334107090292801  HEAD  13 11 6
  usgs:334130090164001  HEAD  4 9 26
  usgs:334130090164001  HEAD  5 9 26
  usgs:334130090164001  HEAD  6 9 26
  usgs:334130090164001  HEAD  7 9 26
  usgs:334130090164001  HEAD  8 9 26
  usgs:334130090164001  HEAD  9 9 26
  usgs:334130090164001  HEAD  10 9 26
  usgs:334130090164001  HEAD  11 9 26
  usgs:334130090164001  HEAD  12 9 26
  usgs:334130090164001  HEAD  13 9 26
  usgs:334137090165901  HEAD  4 9 25
  usgs:334137090165901  HEAD  5 9 25
  usgs:334137090165901  HEAD  6 9 25
  usgs:334137090165901  HEAD  7 9 25
  usgs:334137090165901  HEAD  8 9 25
  usgs:334137090165901  HEAD  9 9 25
  usgs:334137090165901  HEAD  10 9 25
  usgs:334137090165901  HEAD  11 9 25
  usgs:334137090165901  HEAD  12 9 25
  usgs:334137090165901  HEAD  13 9 25
  usgs:334412090270301  HEAD  4 5 10
  usgs:334412090270301  HEAD  5 5 10
  usgs:334412090270301  HEAD  6 5 10
  usgs:334412090270301  HEAD  7 5 10
  usgs:334412090270301  HEAD  8 5 10
  usgs:334412090270301  HEAD  9 5 10
  usgs:334412090270301  HEAD  10 5 10
  usgs:334412090270301  HEAD  11 5 10
  usgs:334412090270301  HEAD  12 5 10
  usgs:334412090270301  HEAD  13 5 10
  usgs:334413090240901  HEAD  4 5 14
  usgs:334413090240901  HEAD  5 5 14
  usgs:334413090240901  HEAD  6 5 14
  usgs:334413090240901  HEAD  7 5 14
  usgs:334413090240901  HEAD  8 5 14
  usgs:334413090240901  HEAD  9 5 14
  usgs:334413090240901  HEAD  10 5 14
  usgs:334413090240901  HEAD  11 5 14
  usgs:334413090240901  HEAD  12 5 14
  usgs:334413090240901  HEAD  13 5 14
  usgs:334415090241401  HEAD  4 5 14
  usgs:334415090241401  HEAD  5 5 14
  usgs:334415090241401  HEAD  6 5 14
  usgs:334415090241401  HEAD  7 5 14
  usgs:334415090241401  HEAD  8 5 14
  usgs:334415090241401  HEAD  9 5 14
  usgs:334415090241401  HEAD  10 5 14
  usgs:334415090241401  HEAD  11 5 14
  usgs:334415090241401  HEAD  12 5 14
  usgs:334415090241401  HEAD  13 5 14
  usgs:334420090140101  HEAD  4 4 30
  usgs:334420090140101  HEAD  5 4 30
  usgs:334420090140101  HEAD  6 4 30
  usgs:334420090140101  HEAD  7 4 30
  usgs:334420090140101  HEAD  8 4 30
  usgs:334420090140101  HEAD  9 4 30
  usgs:334420090140101  HEAD  10 4 30
  usgs:334420090140101  HEAD  11 4 30
  usgs:334420090140101  HEAD  12 4 30
  usgs:334420090140101  HEAD  13 4 30
  usgs:334420090291001  HEAD  4 5 7
  usgs:334420090291001  HEAD  5 5 7
  usgs:334420090291001  HEAD  6 5 7
  usgs:334420090291001  HEAD  7 5 7
  usgs:334420090291001  HEAD  8 5 7
  usgs:334420090291001  HEAD  9 5 7
  usgs:334420090291001  HEAD  10 5 7
  usgs:334420090291001  HEAD  11 5 7
  usgs:334420090291001  HEAD  12 5 7
  usgs:334420090291001  HEAD  13 5 7
  usgs:334429090210101  HEAD  4 4 19
  usgs:334429090210101  HEAD  5 4 19
  usgs:334429090210101  HEAD  6 4 19
  usgs:334429090210101  HEAD  7 4 19
  usgs:334429090210101  HEAD  8 4 19
  usgs:334429090210101  HEAD  9 4 19
  usgs:334429090210101  HEAD  10 4 19
  usgs:334429090210101  HEAD  11 4 19
  usgs:334429090210101  HEAD  12 4 19
  usgs:334429090210101  HEAD  13 4 19
  usgs:334538090303801  HEAD  1 3 4
  usgs:334538090303801  HEAD  2 3 4
  usgs:334538090303801  HEAD  3 3 4
  usgs:334538090303801  HEAD  4 3 4
  usgs:334538090303801  HEAD  5 3 4
  usgs:334538090303801  HEAD  6 3 4
  usgs:334538090303801  HEAD  7 3 4
  usgs:334538090303801  HEAD  8 3 4
  usgs:334538090303801  HEAD  9 3 4
  usgs:334538090303801  HEAD  10 3 4
  usgs:334538090303801  HEAD  11 3 4
  usgs:334538090303801  HEAD  12 3 4
  usgs:334538090303801  HEAD  13 3 4
  usgs:334630090274201  HEAD  4 1 9
  usgs:334630090274201  HEAD  5 1 9
  usgs:334630090274201  HEAD  6 1 9
  usgs:334630090274201  HEAD  7 1 9
  usgs:334630090274201  HEAD  8 1 9
  usgs:334630090274201  HEAD  9 1 9
  usgs:334630090274201  HEAD  10 1 9
  usgs:334630090274201  HEAD  11 1 9
  usgs:334630090274201  HEAD  12 1 9
  usgs:334630090274201  HEAD  13 1 9
END continuous  FILEOUT  shellmound.head.obs

