# shellmound model version 0.post258.dev0+g2de0f7d
# File generated by Flopy version 3.3.4 on 05/19/2021 at 11:49:15.
# via modflow-setup version 0.post258.dev0+g2de0f7d at 2021-05-19 11:49:16
BEGIN options
  BUDGET  FILEOUT  shellmound.cbc
  HEAD  FILEOUT  shellmound.hds
END options

BEGIN period  1
  SAVE  head  last
  SAVE  budget  last
END period  1

