BEGIN options
  DIGITS  10
  PRINT_INPUT
END options

BEGIN continuous  FILEOUT  shellmound.head.obs
  3131090171601  HEAD  4 28 28
  3131090171601  HEAD  5 28 28
  3131090171601  HEAD  6 28 28
  3131090171601  HEAD  7 28 28
  3131090171601  HEAD  8 28 28
  3131090171601  HEAD  9 28 28
  3131090171601  HEAD  10 28 28
  3131090171601  HEAD  11 28 28
  3131090171601  HEAD  12 28 28
  3131090171601  HEAD  13 28 28
  3144090145401  HEAD  4 28 30
  3144090145401  HEAD  5 28 30
  3144090145401  HEAD  6 28 30
  3144090145401  HEAD  7 28 30
  3144090145401  HEAD  8 28 30
  3144090145401  HEAD  9 28 30
  3144090145401  HEAD  10 28 30
  3144090145401  HEAD  11 28 30
  3144090145401  HEAD  12 28 30
  3144090145401  HEAD  13 28 30
  3148090142501  HEAD  4 28 31
  3148090142501  HEAD  5 28 31
  3148090142501  HEAD  6 28 31
  3148090142501  HEAD  7 28 31
  3148090142501  HEAD  8 28 31
  3148090142501  HEAD  9 28 31
  3148090142501  HEAD  10 28 31
  3148090142501  HEAD  11 28 31
  3148090142501  HEAD  12 28 31
  3148090142501  HEAD  13 28 31
  3154090175201  HEAD  4 28 25
  3154090175201  HEAD  5 28 25
  3154090175201  HEAD  6 28 25
  3154090175201  HEAD  7 28 25
  3154090175201  HEAD  8 28 25
  3154090175201  HEAD  9 28 25
  3154090175201  HEAD  10 28 25
  3154090175201  HEAD  11 28 25
  3154090175201  HEAD  12 28 25
  3154090175201  HEAD  13 28 25
  3154090183901  HEAD  4 28 24
  3154090183901  HEAD  5 28 24
  3154090183901  HEAD  6 28 24
  3154090183901  HEAD  7 28 24
  3154090183901  HEAD  8 28 24
  3154090183901  HEAD  9 28 24
  3154090183901  HEAD  10 28 24
  3154090183901  HEAD  11 28 24
  3154090183901  HEAD  12 28 24
  3154090183901  HEAD  13 28 24
  3157090185501  HEAD  4 28 24
  3157090185501  HEAD  5 28 24
  3157090185501  HEAD  6 28 24
  3157090185501  HEAD  7 28 24
  3157090185501  HEAD  8 28 24
  3157090185501  HEAD  9 28 24
  3157090185501  HEAD  10 28 24
  3157090185501  HEAD  11 28 24
  3157090185501  HEAD  12 28 24
  3157090185501  HEAD  13 28 24
  3203090205301  HEAD  4 28 21
  3203090205301  HEAD  5 28 21
  3203090205301  HEAD  6 28 21
  3203090205301  HEAD  7 28 21
  3203090205301  HEAD  8 28 21
  3203090205301  HEAD  9 28 21
  3203090205301  HEAD  10 28 21
  3203090205301  HEAD  11 28 21
  3203090205301  HEAD  12 28 21
  3203090205301  HEAD  13 28 21
  3206090185401  HEAD  4 28 24
  3206090185401  HEAD  5 28 24
  3206090185401  HEAD  6 28 24
  3206090185401  HEAD  7 28 24
  3206090185401  HEAD  8 28 24
  3206090185401  HEAD  9 28 24
  3206090185401  HEAD  10 28 24
  3206090185401  HEAD  11 28 24
  3206090185401  HEAD  12 28 24
  3206090185401  HEAD  13 28 24
  3209090220401  HEAD  4 28 19
  3209090220401  HEAD  5 28 19
  3209090220401  HEAD  6 28 19
  3209090220401  HEAD  7 28 19
  3209090220401  HEAD  8 28 19
  3209090220401  HEAD  9 28 19
  3209090220401  HEAD  10 28 19
  3209090220401  HEAD  11 28 19
  3209090220401  HEAD  12 28 19
  3209090220401  HEAD  13 28 19
  3219090145601  HEAD  4 27 30
  3219090145601  HEAD  5 27 30
  3219090145601  HEAD  6 27 30
  3219090145601  HEAD  7 27 30
  3219090145601  HEAD  8 27 30
  3219090145601  HEAD  9 27 30
  3219090145601  HEAD  10 27 30
  3219090145601  HEAD  11 27 30
  3219090145601  HEAD  12 27 30
  3219090145601  HEAD  13 27 30
  3220090151201  HEAD  4 27 29
  3220090151201  HEAD  5 27 29
  3220090151201  HEAD  6 27 29
  3220090151201  HEAD  7 27 29
  3220090151201  HEAD  8 27 29
  3220090151201  HEAD  9 27 29
  3220090151201  HEAD  10 27 29
  3220090151201  HEAD  11 27 29
  3220090151201  HEAD  12 27 29
  3220090151201  HEAD  13 27 29
  3224090252801  HEAD  1 28 14
  3224090252801  HEAD  2 28 14
  3224090252801  HEAD  3 28 14
  3224090252801  HEAD  4 28 14
  3224090252801  HEAD  5 28 14
  3224090252801  HEAD  6 28 14
  3224090252801  HEAD  7 28 14
  3224090252801  HEAD  8 28 14
  3224090252801  HEAD  9 28 14
  3224090252801  HEAD  10 28 14
  3224090252801  HEAD  11 28 14
  3224090252801  HEAD  12 28 14
  3224090252801  HEAD  13 28 14
  3225090284501  HEAD  1 28 8
  3225090284501  HEAD  2 28 8
  3225090284501  HEAD  3 28 8
  3225090284501  HEAD  4 28 8
  3225090284501  HEAD  5 28 8
  3225090284501  HEAD  6 28 8
  3225090284501  HEAD  7 28 8
  3225090284501  HEAD  8 28 8
  3225090284501  HEAD  9 28 8
  3225090284501  HEAD  10 28 8
  3225090284501  HEAD  11 28 8
  3225090284501  HEAD  12 28 8
  3225090284501  HEAD  13 28 8
  3226090283701  HEAD  1 28 9
  3226090283701  HEAD  2 28 9
  3226090283701  HEAD  3 28 9
  3226090283701  HEAD  4 28 9
  3226090283701  HEAD  5 28 9
  3226090283701  HEAD  6 28 9
  3226090283701  HEAD  7 28 9
  3226090283701  HEAD  8 28 9
  3226090283701  HEAD  9 28 9
  3226090283701  HEAD  10 28 9
  3226090283701  HEAD  11 28 9
  3226090283701  HEAD  12 28 9
  3226090283701  HEAD  13 28 9
  3227090174201  HEAD  4 27 25
  3227090174201  HEAD  5 27 25
  3227090174201  HEAD  6 27 25
  3227090174201  HEAD  7 27 25
  3227090174201  HEAD  8 27 25
  3227090174201  HEAD  9 27 25
  3227090174201  HEAD  10 27 25
  3227090174201  HEAD  11 27 25
  3227090174201  HEAD  12 27 25
  3227090174201  HEAD  13 27 25
  3228090273001  HEAD  1 28 10
  3228090273001  HEAD  2 28 10
  3228090273001  HEAD  3 28 10
  3228090273001  HEAD  4 28 10
  3228090273001  HEAD  5 28 10
  3228090273001  HEAD  6 28 10
  3228090273001  HEAD  7 28 10
  3228090273001  HEAD  8 28 10
  3228090273001  HEAD  9 28 10
  3228090273001  HEAD  10 28 10
  3228090273001  HEAD  11 28 10
  3228090273001  HEAD  12 28 10
  3228090273001  HEAD  13 28 10
  3230090283401  HEAD  1 28 9
  3230090283401  HEAD  2 28 9
  3230090283401  HEAD  3 28 9
  3230090283401  HEAD  4 28 9
  3230090283401  HEAD  5 28 9
  3230090283401  HEAD  6 28 9
  3230090283401  HEAD  7 28 9
  3230090283401  HEAD  8 28 9
  3230090283401  HEAD  9 28 9
  3230090283401  HEAD  10 28 9
  3230090283401  HEAD  11 28 9
  3230090283401  HEAD  12 28 9
  3230090283401  HEAD  13 28 9
  3230090285201  HEAD  1 28 8
  3230090285201  HEAD  2 28 8
  3230090285201  HEAD  3 28 8
  3230090285201  HEAD  4 28 8
  3230090285201  HEAD  5 28 8
  3230090285201  HEAD  6 28 8
  3230090285201  HEAD  7 28 8
  3230090285201  HEAD  8 28 8
  3230090285201  HEAD  9 28 8
  3230090285201  HEAD  10 28 8
  3230090285201  HEAD  11 28 8
  3230090285201  HEAD  12 28 8
  3230090285201  HEAD  13 28 8
  3230090303801  HEAD  1 28 6
  3230090303801  HEAD  2 28 6
  3230090303801  HEAD  3 28 6
  3230090303801  HEAD  4 28 6
  3230090303801  HEAD  5 28 6
  3230090303801  HEAD  6 28 6
  3230090303801  HEAD  7 28 6
  3230090303801  HEAD  8 28 6
  3230090303801  HEAD  9 28 6
  3230090303801  HEAD  10 28 6
  3230090303801  HEAD  11 28 6
  3230090303801  HEAD  12 28 6
  3230090303801  HEAD  13 28 6
  3231090213701  HEAD  4 28 19
  3231090213701  HEAD  5 28 19
  3231090213701  HEAD  6 28 19
  3231090213701  HEAD  7 28 19
  3231090213701  HEAD  8 28 19
  3231090213701  HEAD  9 28 19
  3231090213701  HEAD  10 28 19
  3231090213701  HEAD  11 28 19
  3231090213701  HEAD  12 28 19
  3231090213701  HEAD  13 28 19
  3232090212001  HEAD  4 27 20
  3232090212001  HEAD  5 27 20
  3232090212001  HEAD  6 27 20
  3232090212001  HEAD  7 27 20
  3232090212001  HEAD  8 27 20
  3232090212001  HEAD  9 27 20
  3232090212001  HEAD  10 27 20
  3232090212001  HEAD  11 27 20
  3232090212001  HEAD  12 27 20
  3232090212001  HEAD  13 27 20
  3232090273201  HEAD  1 28 10
  3232090273201  HEAD  2 28 10
  3232090273201  HEAD  3 28 10
  3232090273201  HEAD  4 28 10
  3232090273201  HEAD  5 28 10
  3232090273201  HEAD  6 28 10
  3232090273201  HEAD  7 28 10
  3232090273201  HEAD  8 28 10
  3232090273201  HEAD  9 28 10
  3232090273201  HEAD  10 28 10
  3232090273201  HEAD  11 28 10
  3232090273201  HEAD  12 28 10
  3232090273201  HEAD  13 28 10
  3232090273202  HEAD  1 28 10
  3232090273202  HEAD  2 28 10
  3232090273202  HEAD  3 28 10
  3232090273202  HEAD  4 28 10
  3232090273202  HEAD  5 28 10
  3232090273202  HEAD  6 28 10
  3232090273202  HEAD  7 28 10
  3232090273202  HEAD  8 28 10
  3232090273202  HEAD  9 28 10
  3232090273202  HEAD  10 28 10
  3232090273202  HEAD  11 28 10
  3232090273202  HEAD  12 28 10
  3232090273202  HEAD  13 28 10
  3232090294401  HEAD  1 28 7
  3232090294401  HEAD  2 28 7
  3232090294401  HEAD  3 28 7
  3232090294401  HEAD  4 28 7
  3232090294401  HEAD  5 28 7
  3232090294401  HEAD  6 28 7
  3232090294401  HEAD  7 28 7
  3232090294401  HEAD  8 28 7
  3232090294401  HEAD  9 28 7
  3232090294401  HEAD  10 28 7
  3232090294401  HEAD  11 28 7
  3232090294401  HEAD  12 28 7
  3232090294401  HEAD  13 28 7
  3233090163101  HEAD  4 27 27
  3233090163101  HEAD  5 27 27
  3233090163101  HEAD  6 27 27
  3233090163101  HEAD  7 27 27
  3233090163101  HEAD  8 27 27
  3233090163101  HEAD  9 27 27
  3233090163101  HEAD  10 27 27
  3233090163101  HEAD  11 27 27
  3233090163101  HEAD  12 27 27
  3233090163101  HEAD  13 27 27
  3233090292201  HEAD  1 28 7
  3233090292201  HEAD  2 28 7
  3233090292201  HEAD  3 28 7
  3233090292201  HEAD  4 28 7
  3233090292201  HEAD  5 28 7
  3233090292201  HEAD  6 28 7
  3233090292201  HEAD  7 28 7
  3233090292201  HEAD  8 28 7
  3233090292201  HEAD  9 28 7
  3233090292201  HEAD  10 28 7
  3233090292201  HEAD  11 28 7
  3233090292201  HEAD  12 28 7
  3233090292201  HEAD  13 28 7
  3233090302101  HEAD  1 28 6
  3233090302101  HEAD  2 28 6
  3233090302101  HEAD  3 28 6
  3233090302101  HEAD  4 28 6
  3233090302101  HEAD  5 28 6
  3233090302101  HEAD  6 28 6
  3233090302101  HEAD  7 28 6
  3233090302101  HEAD  8 28 6
  3233090302101  HEAD  9 28 6
  3233090302101  HEAD  10 28 6
  3233090302101  HEAD  11 28 6
  3233090302101  HEAD  12 28 6
  3233090302101  HEAD  13 28 6
  3233090312201  HEAD  1 28 4
  3233090312201  HEAD  2 28 4
  3233090312201  HEAD  3 28 4
  3233090312201  HEAD  4 28 4
  3233090312201  HEAD  5 28 4
  3233090312201  HEAD  6 28 4
  3233090312201  HEAD  7 28 4
  3233090312201  HEAD  8 28 4
  3233090312201  HEAD  9 28 4
  3233090312201  HEAD  10 28 4
  3233090312201  HEAD  11 28 4
  3233090312201  HEAD  12 28 4
  3233090312201  HEAD  13 28 4
  3234090313501  HEAD  1 28 4
  3234090313501  HEAD  2 28 4
  3234090313501  HEAD  3 28 4
  3234090313501  HEAD  4 28 4
  3234090313501  HEAD  5 28 4
  3234090313501  HEAD  6 28 4
  3234090313501  HEAD  7 28 4
  3234090313501  HEAD  8 28 4
  3234090313501  HEAD  9 28 4
  3234090313501  HEAD  10 28 4
  3234090313501  HEAD  11 28 4
  3234090313501  HEAD  12 28 4
  3234090313501  HEAD  13 28 4
  3234090314601  HEAD  1 28 4
  3234090314601  HEAD  2 28 4
  3234090314601  HEAD  3 28 4
  3234090314601  HEAD  4 28 4
  3234090314601  HEAD  5 28 4
  3234090314601  HEAD  6 28 4
  3234090314601  HEAD  7 28 4
  3234090314601  HEAD  8 28 4
  3234090314601  HEAD  9 28 4
  3234090314601  HEAD  10 28 4
  3234090314601  HEAD  11 28 4
  3234090314601  HEAD  12 28 4
  3234090314601  HEAD  13 28 4
  3235090281601  HEAD  1 28 9
  3235090281601  HEAD  2 28 9
  3235090281601  HEAD  3 28 9
  3235090281601  HEAD  4 28 9
  3235090281601  HEAD  5 28 9
  3235090281601  HEAD  6 28 9
  3235090281601  HEAD  7 28 9
  3235090281601  HEAD  8 28 9
  3235090281601  HEAD  9 28 9
  3235090281601  HEAD  10 28 9
  3235090281601  HEAD  11 28 9
  3235090281601  HEAD  12 28 9
  3235090281601  HEAD  13 28 9
  3235090305701  HEAD  1 28 5
  3235090305701  HEAD  2 28 5
  3235090305701  HEAD  3 28 5
  3235090305701  HEAD  4 28 5
  3235090305701  HEAD  5 28 5
  3235090305701  HEAD  6 28 5
  3235090305701  HEAD  7 28 5
  3235090305701  HEAD  8 28 5
  3235090305701  HEAD  9 28 5
  3235090305701  HEAD  10 28 5
  3235090305701  HEAD  11 28 5
  3235090305701  HEAD  12 28 5
  3235090305701  HEAD  13 28 5
  3236090213801  HEAD  4 27 19
  3236090213801  HEAD  5 27 19
  3236090213801  HEAD  6 27 19
  3236090213801  HEAD  7 27 19
  3236090213801  HEAD  8 27 19
  3236090213801  HEAD  9 27 19
  3236090213801  HEAD  10 27 19
  3236090213801  HEAD  11 27 19
  3236090213801  HEAD  12 27 19
  3236090213801  HEAD  13 27 19
  3236090314201  HEAD  1 28 4
  3236090314201  HEAD  2 28 4
  3236090314201  HEAD  3 28 4
  3236090314201  HEAD  4 28 4
  3236090314201  HEAD  5 28 4
  3236090314201  HEAD  6 28 4
  3236090314201  HEAD  7 28 4
  3236090314201  HEAD  8 28 4
  3236090314201  HEAD  9 28 4
  3236090314201  HEAD  10 28 4
  3236090314201  HEAD  11 28 4
  3236090314201  HEAD  12 28 4
  3236090314201  HEAD  13 28 4
  3238090285001  HEAD  1 28 8
  3238090285001  HEAD  2 28 8
  3238090285001  HEAD  3 28 8
  3238090285001  HEAD  4 28 8
  3238090285001  HEAD  5 28 8
  3238090285001  HEAD  6 28 8
  3238090285001  HEAD  7 28 8
  3238090285001  HEAD  8 28 8
  3238090285001  HEAD  9 28 8
  3238090285001  HEAD  10 28 8
  3238090285001  HEAD  11 28 8
  3238090285001  HEAD  12 28 8
  3238090285001  HEAD  13 28 8
  3239090271001  HEAD  1 28 11
  3239090271001  HEAD  2 28 11
  3239090271001  HEAD  3 28 11
  3239090271001  HEAD  4 28 11
  3239090271001  HEAD  5 28 11
  3239090271001  HEAD  6 28 11
  3239090271001  HEAD  7 28 11
  3239090271001  HEAD  8 28 11
  3239090271001  HEAD  9 28 11
  3239090271001  HEAD  10 28 11
  3239090271001  HEAD  11 28 11
  3239090271001  HEAD  12 28 11
  3239090271001  HEAD  13 28 11
  3240090274801  HEAD  1 28 10
  3240090274801  HEAD  2 28 10
  3240090274801  HEAD  3 28 10
  3240090274801  HEAD  4 28 10
  3240090274801  HEAD  5 28 10
  3240090274801  HEAD  6 28 10
  3240090274801  HEAD  7 28 10
  3240090274801  HEAD  8 28 10
  3240090274801  HEAD  9 28 10
  3240090274801  HEAD  10 28 10
  3240090274801  HEAD  11 28 10
  3240090274801  HEAD  12 28 10
  3240090274801  HEAD  13 28 10
  3244090195201  HEAD  4 27 22
  3244090195201  HEAD  5 27 22
  3244090195201  HEAD  6 27 22
  3244090195201  HEAD  7 27 22
  3244090195201  HEAD  8 27 22
  3244090195201  HEAD  9 27 22
  3244090195201  HEAD  10 27 22
  3244090195201  HEAD  11 27 22
  3244090195201  HEAD  12 27 22
  3244090195201  HEAD  13 27 22
  3245090274501  HEAD  1 28 10
  3245090274501  HEAD  2 28 10
  3245090274501  HEAD  3 28 10
  3245090274501  HEAD  4 28 10
  3245090274501  HEAD  5 28 10
  3245090274501  HEAD  6 28 10
  3245090274501  HEAD  7 28 10
  3245090274501  HEAD  8 28 10
  3245090274501  HEAD  9 28 10
  3245090274501  HEAD  10 28 10
  3245090274501  HEAD  11 28 10
  3245090274501  HEAD  12 28 10
  3245090274501  HEAD  13 28 10
  3245090292801  HEAD  1 28 7
  3245090292801  HEAD  2 28 7
  3245090292801  HEAD  3 28 7
  3245090292801  HEAD  4 28 7
  3245090292801  HEAD  5 28 7
  3245090292801  HEAD  6 28 7
  3245090292801  HEAD  7 28 7
  3245090292801  HEAD  8 28 7
  3245090292801  HEAD  9 28 7
  3245090292801  HEAD  10 28 7
  3245090292801  HEAD  11 28 7
  3245090292801  HEAD  12 28 7
  3245090292801  HEAD  13 28 7
  3248090290701  HEAD  1 28 8
  3248090290701  HEAD  2 28 8
  3248090290701  HEAD  3 28 8
  3248090290701  HEAD  4 28 8
  3248090290701  HEAD  5 28 8
  3248090290701  HEAD  6 28 8
  3248090290701  HEAD  7 28 8
  3248090290701  HEAD  8 28 8
  3248090290701  HEAD  9 28 8
  3248090290701  HEAD  10 28 8
  3248090290701  HEAD  11 28 8
  3248090290701  HEAD  12 28 8
  3248090290701  HEAD  13 28 8
  3250090211801  HEAD  4 27 20
  3250090211801  HEAD  5 27 20
  3250090211801  HEAD  6 27 20
  3250090211801  HEAD  7 27 20
  3250090211801  HEAD  8 27 20
  3250090211801  HEAD  9 27 20
  3250090211801  HEAD  10 27 20
  3250090211801  HEAD  11 27 20
  3250090211801  HEAD  12 27 20
  3250090211801  HEAD  13 27 20
  3251090291501  HEAD  1 28 8
  3251090291501  HEAD  2 28 8
  3251090291501  HEAD  3 28 8
  3251090291501  HEAD  4 28 8
  3251090291501  HEAD  5 28 8
  3251090291501  HEAD  6 28 8
  3251090291501  HEAD  7 28 8
  3251090291501  HEAD  8 28 8
  3251090291501  HEAD  9 28 8
  3251090291501  HEAD  10 28 8
  3251090291501  HEAD  11 28 8
  3251090291501  HEAD  12 28 8
  3251090291501  HEAD  13 28 8
  3252090321601  HEAD  1 28 3
  3252090321601  HEAD  2 28 3
  3252090321601  HEAD  3 28 3
  3252090321601  HEAD  4 28 3
  3252090321601  HEAD  5 28 3
  3252090321601  HEAD  6 28 3
  3252090321601  HEAD  7 28 3
  3252090321601  HEAD  8 28 3
  3252090321601  HEAD  9 28 3
  3252090321601  HEAD  10 28 3
  3252090321601  HEAD  11 28 3
  3252090321601  HEAD  12 28 3
  3252090321601  HEAD  13 28 3
  3256090301301  HEAD  1 28 6
  3256090301301  HEAD  2 28 6
  3256090301301  HEAD  3 28 6
  3256090301301  HEAD  4 28 6
  3256090301301  HEAD  5 28 6
  3256090301301  HEAD  6 28 6
  3256090301301  HEAD  7 28 6
  3256090301301  HEAD  8 28 6
  3256090301301  HEAD  9 28 6
  3256090301301  HEAD  10 28 6
  3256090301301  HEAD  11 28 6
  3256090301301  HEAD  12 28 6
  3256090301301  HEAD  13 28 6
  3257090191501  HEAD  4 27 23
  3257090191501  HEAD  5 27 23
  3257090191501  HEAD  6 27 23
  3257090191501  HEAD  7 27 23
  3257090191501  HEAD  8 27 23
  3257090191501  HEAD  9 27 23
  3257090191501  HEAD  10 27 23
  3257090191501  HEAD  11 27 23
  3257090191501  HEAD  12 27 23
  3257090191501  HEAD  13 27 23
  3259090121001  HEAD  4 26 34
  3259090121001  HEAD  5 26 34
  3259090121001  HEAD  6 26 34
  3259090121001  HEAD  7 26 34
  3259090121001  HEAD  8 26 34
  3259090121001  HEAD  9 26 34
  3259090121001  HEAD  10 26 34
  3259090121001  HEAD  11 26 34
  3259090121001  HEAD  12 26 34
  3259090121001  HEAD  13 26 34
  3300090182401  HEAD  4 26 24
  3300090182401  HEAD  5 26 24
  3300090182401  HEAD  6 26 24
  3300090182401  HEAD  7 26 24
  3300090182401  HEAD  8 26 24
  3300090182401  HEAD  9 26 24
  3300090182401  HEAD  10 26 24
  3300090182401  HEAD  11 26 24
  3300090182401  HEAD  12 26 24
  3300090182401  HEAD  13 26 24
  3301090305601  HEAD  1 27 5
  3301090305601  HEAD  2 27 5
  3301090305601  HEAD  3 27 5
  3301090305601  HEAD  4 27 5
  3301090305601  HEAD  5 27 5
  3301090305601  HEAD  6 27 5
  3301090305601  HEAD  7 27 5
  3301090305601  HEAD  8 27 5
  3301090305601  HEAD  9 27 5
  3301090305601  HEAD  10 27 5
  3301090305601  HEAD  11 27 5
  3301090305601  HEAD  12 27 5
  3301090305601  HEAD  13 27 5
  3302090222601  HEAD  4 27 18
  3302090222601  HEAD  5 27 18
  3302090222601  HEAD  6 27 18
  3302090222601  HEAD  7 27 18
  3302090222601  HEAD  8 27 18
  3302090222601  HEAD  9 27 18
  3302090222601  HEAD  10 27 18
  3302090222601  HEAD  11 27 18
  3302090222601  HEAD  12 27 18
  3302090222601  HEAD  13 27 18
  3303090152401  HEAD  4 26 29
  3303090152401  HEAD  5 26 29
  3303090152401  HEAD  6 26 29
  3303090152401  HEAD  7 26 29
  3303090152401  HEAD  8 26 29
  3303090152401  HEAD  9 26 29
  3303090152401  HEAD  10 26 29
  3303090152401  HEAD  11 26 29
  3303090152401  HEAD  12 26 29
  3303090152401  HEAD  13 26 29
  3303090320701  HEAD  1 27 3
  3303090320701  HEAD  2 27 3
  3303090320701  HEAD  3 27 3
  3303090320701  HEAD  4 27 3
  3303090320701  HEAD  5 27 3
  3303090320701  HEAD  6 27 3
  3303090320701  HEAD  7 27 3
  3303090320701  HEAD  8 27 3
  3303090320701  HEAD  9 27 3
  3303090320701  HEAD  10 27 3
  3303090320701  HEAD  11 27 3
  3303090320701  HEAD  12 27 3
  3303090320701  HEAD  13 27 3
  3307090315801  HEAD  1 27 3
  3307090315801  HEAD  2 27 3
  3307090315801  HEAD  3 27 3
  3307090315801  HEAD  4 27 3
  3307090315801  HEAD  5 27 3
  3307090315801  HEAD  6 27 3
  3307090315801  HEAD  7 27 3
  3307090315801  HEAD  8 27 3
  3307090315801  HEAD  9 27 3
  3307090315801  HEAD  10 27 3
  3307090315801  HEAD  11 27 3
  3307090315801  HEAD  12 27 3
  3307090315801  HEAD  13 27 3
  3308090181601  HEAD  4 26 24
  3308090181601  HEAD  5 26 24
  3308090181601  HEAD  6 26 24
  3308090181601  HEAD  7 26 24
  3308090181601  HEAD  8 26 24
  3308090181601  HEAD  9 26 24
  3308090181601  HEAD  10 26 24
  3308090181601  HEAD  11 26 24
  3308090181601  HEAD  12 26 24
  3308090181601  HEAD  13 26 24
  3309090280801  HEAD  1 27 9
  3309090280801  HEAD  2 27 9
  3309090280801  HEAD  3 27 9
  3309090280801  HEAD  4 27 9
  3309090280801  HEAD  5 27 9
  3309090280801  HEAD  6 27 9
  3309090280801  HEAD  7 27 9
  3309090280801  HEAD  8 27 9
  3309090280801  HEAD  9 27 9
  3309090280801  HEAD  10 27 9
  3309090280801  HEAD  11 27 9
  3309090280801  HEAD  12 27 9
  3309090280801  HEAD  13 27 9
  3311090242601  HEAD  1 27 15
  3311090242601  HEAD  2 27 15
  3311090242601  HEAD  3 27 15
  3311090242601  HEAD  4 27 15
  3311090242601  HEAD  5 27 15
  3311090242601  HEAD  6 27 15
  3311090242601  HEAD  7 27 15
  3311090242601  HEAD  8 27 15
  3311090242601  HEAD  9 27 15
  3311090242601  HEAD  10 27 15
  3311090242601  HEAD  11 27 15
  3311090242601  HEAD  12 27 15
  3311090242601  HEAD  13 27 15
  3315090241901  HEAD  4 26 15
  3315090241901  HEAD  5 26 15
  3315090241901  HEAD  6 26 15
  3315090241901  HEAD  7 26 15
  3315090241901  HEAD  8 26 15
  3315090241901  HEAD  9 26 15
  3315090241901  HEAD  10 26 15
  3315090241901  HEAD  11 26 15
  3315090241901  HEAD  12 26 15
  3315090241901  HEAD  13 26 15
  3319090283501  HEAD  1 27 9
  3319090283501  HEAD  2 27 9
  3319090283501  HEAD  3 27 9
  3319090283501  HEAD  4 27 9
  3319090283501  HEAD  5 27 9
  3319090283501  HEAD  6 27 9
  3319090283501  HEAD  7 27 9
  3319090283501  HEAD  8 27 9
  3319090283501  HEAD  9 27 9
  3319090283501  HEAD  10 27 9
  3319090283501  HEAD  11 27 9
  3319090283501  HEAD  12 27 9
  3319090283501  HEAD  13 27 9
  3321090222901  HEAD  4 26 18
  3321090222901  HEAD  5 26 18
  3321090222901  HEAD  6 26 18
  3321090222901  HEAD  7 26 18
  3321090222901  HEAD  8 26 18
  3321090222901  HEAD  9 26 18
  3321090222901  HEAD  10 26 18
  3321090222901  HEAD  11 26 18
  3321090222901  HEAD  12 26 18
  3321090222901  HEAD  13 26 18
  3325090235801  HEAD  4 26 16
  3325090235801  HEAD  5 26 16
  3325090235801  HEAD  6 26 16
  3325090235801  HEAD  7 26 16
  3325090235801  HEAD  8 26 16
  3325090235801  HEAD  9 26 16
  3325090235801  HEAD  10 26 16
  3325090235801  HEAD  11 26 16
  3325090235801  HEAD  12 26 16
  3325090235801  HEAD  13 26 16
  3329090230801  HEAD  4 26 17
  3329090230801  HEAD  5 26 17
  3329090230801  HEAD  6 26 17
  3329090230801  HEAD  7 26 17
  3329090230801  HEAD  8 26 17
  3329090230801  HEAD  9 26 17
  3329090230801  HEAD  10 26 17
  3329090230801  HEAD  11 26 17
  3329090230801  HEAD  12 26 17
  3329090230801  HEAD  13 26 17
  3329090234001  HEAD  4 26 16
  3329090234001  HEAD  5 26 16
  3329090234001  HEAD  6 26 16
  3329090234001  HEAD  7 26 16
  3329090234001  HEAD  8 26 16
  3329090234001  HEAD  9 26 16
  3329090234001  HEAD  10 26 16
  3329090234001  HEAD  11 26 16
  3329090234001  HEAD  12 26 16
  3329090234001  HEAD  13 26 16
  3329090241001  HEAD  4 26 15
  3329090241001  HEAD  5 26 15
  3329090241001  HEAD  6 26 15
  3329090241001  HEAD  7 26 15
  3329090241001  HEAD  8 26 15
  3329090241001  HEAD  9 26 15
  3329090241001  HEAD  10 26 15
  3329090241001  HEAD  11 26 15
  3329090241001  HEAD  12 26 15
  3329090241001  HEAD  13 26 15
  3329090402701  HEAD  1 26 13
  3329090402701  HEAD  2 26 13
  3329090402701  HEAD  3 26 13
  3329090402701  HEAD  4 26 13
  3329090402701  HEAD  5 26 13
  3329090402701  HEAD  6 26 13
  3329090402701  HEAD  7 26 13
  3329090402701  HEAD  8 26 13
  3329090402701  HEAD  9 26 13
  3329090402701  HEAD  10 26 13
  3329090402701  HEAD  11 26 13
  3329090402701  HEAD  12 26 13
  3329090402701  HEAD  13 26 13
  3330090313801  HEAD  1 27 4
  3330090313801  HEAD  2 27 4
  3330090313801  HEAD  3 27 4
  3330090313801  HEAD  4 27 4
  3330090313801  HEAD  5 27 4
  3330090313801  HEAD  6 27 4
  3330090313801  HEAD  7 27 4
  3330090313801  HEAD  8 27 4
  3330090313801  HEAD  9 27 4
  3330090313801  HEAD  10 27 4
  3330090313801  HEAD  11 27 4
  3330090313801  HEAD  12 27 4
  3330090313801  HEAD  13 27 4
  3332090145001  HEAD  4 25 30
  3332090145001  HEAD  5 25 30
  3332090145001  HEAD  6 25 30
  3332090145001  HEAD  7 25 30
  3332090145001  HEAD  8 25 30
  3332090145001  HEAD  9 25 30
  3332090145001  HEAD  10 25 30
  3332090145001  HEAD  11 25 30
  3332090145001  HEAD  12 25 30
  3332090145001  HEAD  13 25 30
  3332090254201  HEAD  1 26 13
  3332090254201  HEAD  2 26 13
  3332090254201  HEAD  3 26 13
  3332090254201  HEAD  4 26 13
  3332090254201  HEAD  5 26 13
  3332090254201  HEAD  6 26 13
  3332090254201  HEAD  7 26 13
  3332090254201  HEAD  8 26 13
  3332090254201  HEAD  9 26 13
  3332090254201  HEAD  10 26 13
  3332090254201  HEAD  11 26 13
  3332090254201  HEAD  12 26 13
  3332090254201  HEAD  13 26 13
  3335090310201  HEAD  1 26 5
  3335090310201  HEAD  2 26 5
  3335090310201  HEAD  3 26 5
  3335090310201  HEAD  4 26 5
  3335090310201  HEAD  5 26 5
  3335090310201  HEAD  6 26 5
  3335090310201  HEAD  7 26 5
  3335090310201  HEAD  8 26 5
  3335090310201  HEAD  9 26 5
  3335090310201  HEAD  10 26 5
  3335090310201  HEAD  11 26 5
  3335090310201  HEAD  12 26 5
  3335090310201  HEAD  13 26 5
  3337090251901  HEAD  1 26 14
  3337090251901  HEAD  2 26 14
  3337090251901  HEAD  3 26 14
  3337090251901  HEAD  4 26 14
  3337090251901  HEAD  5 26 14
  3337090251901  HEAD  6 26 14
  3337090251901  HEAD  7 26 14
  3337090251901  HEAD  8 26 14
  3337090251901  HEAD  9 26 14
  3337090251901  HEAD  10 26 14
  3337090251901  HEAD  11 26 14
  3337090251901  HEAD  12 26 14
  3337090251901  HEAD  13 26 14
  3337090304001  HEAD  1 26 5
  3337090304001  HEAD  2 26 5
  3337090304001  HEAD  3 26 5
  3337090304001  HEAD  4 26 5
  3337090304001  HEAD  5 26 5
  3337090304001  HEAD  6 26 5
  3337090304001  HEAD  7 26 5
  3337090304001  HEAD  8 26 5
  3337090304001  HEAD  9 26 5
  3337090304001  HEAD  10 26 5
  3337090304001  HEAD  11 26 5
  3337090304001  HEAD  12 26 5
  3337090304001  HEAD  13 26 5
  3342090223201  HEAD  4 25 19
  3342090223201  HEAD  5 25 19
  3342090223201  HEAD  6 25 19
  3342090223201  HEAD  7 25 19
  3342090223201  HEAD  8 25 19
  3342090223201  HEAD  9 25 19
  3342090223201  HEAD  10 25 19
  3342090223201  HEAD  11 25 19
  3342090223201  HEAD  12 25 19
  3342090223201  HEAD  13 25 19
  3342090232401  HEAD  4 26 17
  3342090232401  HEAD  5 26 17
  3342090232401  HEAD  6 26 17
  3342090232401  HEAD  7 26 17
  3342090232401  HEAD  8 26 17
  3342090232401  HEAD  9 26 17
  3342090232401  HEAD  10 26 17
  3342090232401  HEAD  11 26 17
  3342090232401  HEAD  12 26 17
  3342090232401  HEAD  13 26 17
  3342090321001  HEAD  1 26 3
  3342090321001  HEAD  2 26 3
  3342090321001  HEAD  3 26 3
  3342090321001  HEAD  4 26 3
  3342090321001  HEAD  5 26 3
  3342090321001  HEAD  6 26 3
  3342090321001  HEAD  7 26 3
  3342090321001  HEAD  8 26 3
  3342090321001  HEAD  9 26 3
  3342090321001  HEAD  10 26 3
  3342090321001  HEAD  11 26 3
  3342090321001  HEAD  12 26 3
  3342090321001  HEAD  13 26 3
  3345090252801  HEAD  1 26 13
  3345090252801  HEAD  2 26 13
  3345090252801  HEAD  3 26 13
  3345090252801  HEAD  4 26 13
  3345090252801  HEAD  5 26 13
  3345090252801  HEAD  6 26 13
  3345090252801  HEAD  7 26 13
  3345090252801  HEAD  8 26 13
  3345090252801  HEAD  9 26 13
  3345090252801  HEAD  10 26 13
  3345090252801  HEAD  11 26 13
  3345090252801  HEAD  12 26 13
  3345090252801  HEAD  13 26 13
  3345090271601  HEAD  1 26 11
  3345090271601  HEAD  2 26 11
  3345090271601  HEAD  3 26 11
  3345090271601  HEAD  4 26 11
  3345090271601  HEAD  5 26 11
  3345090271601  HEAD  6 26 11
  3345090271601  HEAD  7 26 11
  3345090271601  HEAD  8 26 11
  3345090271601  HEAD  9 26 11
  3345090271601  HEAD  10 26 11
  3345090271601  HEAD  11 26 11
  3345090271601  HEAD  12 26 11
  3345090271601  HEAD  13 26 11
  3346090255901  HEAD  1 26 13
  3346090255901  HEAD  2 26 13
  3346090255901  HEAD  3 26 13
  3346090255901  HEAD  4 26 13
  3346090255901  HEAD  5 26 13
  3346090255901  HEAD  6 26 13
  3346090255901  HEAD  7 26 13
  3346090255901  HEAD  8 26 13
  3346090255901  HEAD  9 26 13
  3346090255901  HEAD  10 26 13
  3346090255901  HEAD  11 26 13
  3346090255901  HEAD  12 26 13
  3346090255901  HEAD  13 26 13
  3346090320401  HEAD  1 26 3
  3346090320401  HEAD  2 26 3
  3346090320401  HEAD  3 26 3
  3346090320401  HEAD  4 26 3
  3346090320401  HEAD  5 26 3
  3346090320401  HEAD  6 26 3
  3346090320401  HEAD  7 26 3
  3346090320401  HEAD  8 26 3
  3346090320401  HEAD  9 26 3
  3346090320401  HEAD  10 26 3
  3346090320401  HEAD  11 26 3
  3346090320401  HEAD  12 26 3
  3346090320401  HEAD  13 26 3
  3347090222801  HEAD  4 25 18
  3347090222801  HEAD  5 25 18
  3347090222801  HEAD  6 25 18
  3347090222801  HEAD  7 25 18
  3347090222801  HEAD  8 25 18
  3347090222801  HEAD  9 25 18
  3347090222801  HEAD  10 25 18
  3347090222801  HEAD  11 25 18
  3347090222801  HEAD  12 25 18
  3347090222801  HEAD  13 25 18
  3348090185201  HEAD  4 25 23
  3348090185201  HEAD  5 25 23
  3348090185201  HEAD  6 25 23
  3348090185201  HEAD  7 25 23
  3348090185201  HEAD  8 25 23
  3348090185201  HEAD  9 25 23
  3348090185201  HEAD  10 25 23
  3348090185201  HEAD  11 25 23
  3348090185201  HEAD  12 25 23
  3348090185201  HEAD  13 25 23
  3348090202701  HEAD  4 25 21
  3348090202701  HEAD  5 25 21
  3348090202701  HEAD  6 25 21
  3348090202701  HEAD  7 25 21
  3348090202701  HEAD  8 25 21
  3348090202701  HEAD  9 25 21
  3348090202701  HEAD  10 25 21
  3348090202701  HEAD  11 25 21
  3348090202701  HEAD  12 25 21
  3348090202701  HEAD  13 25 21
  3348090311801  HEAD  1 26 4
  3348090311801  HEAD  2 26 4
  3348090311801  HEAD  3 26 4
  3348090311801  HEAD  4 26 4
  3348090311801  HEAD  5 26 4
  3348090311801  HEAD  6 26 4
  3348090311801  HEAD  7 26 4
  3348090311801  HEAD  8 26 4
  3348090311801  HEAD  9 26 4
  3348090311801  HEAD  10 26 4
  3348090311801  HEAD  11 26 4
  3348090311801  HEAD  12 26 4
  3348090311801  HEAD  13 26 4
  3351090291401  HEAD  1 26 8
  3351090291401  HEAD  2 26 8
  3351090291401  HEAD  3 26 8
  3351090291401  HEAD  4 26 8
  3351090291401  HEAD  5 26 8
  3351090291401  HEAD  6 26 8
  3351090291401  HEAD  7 26 8
  3351090291401  HEAD  8 26 8
  3351090291401  HEAD  9 26 8
  3351090291401  HEAD  10 26 8
  3351090291401  HEAD  11 26 8
  3351090291401  HEAD  12 26 8
  3351090291401  HEAD  13 26 8
  3352090294001  HEAD  1 26 7
  3352090294001  HEAD  2 26 7
  3352090294001  HEAD  3 26 7
  3352090294001  HEAD  4 26 7
  3352090294001  HEAD  5 26 7
  3352090294001  HEAD  6 26 7
  3352090294001  HEAD  7 26 7
  3352090294001  HEAD  8 26 7
  3352090294001  HEAD  9 26 7