BEGIN options
  LIST  /users/aleaf/documents/github/mfsetup/mfsetup/tests/tmp/shellmound/shellmound.list
  PRINT_INPUT
  SAVE_FLOWS
  NEWTON
END options

BEGIN packages
  DIS6  shellmound.dis  dis
  IC6  shellmound.ic  ic
  NPF6  shellmound.npf  npf
  STO6  shellmound.sto  sto
  RCH6  shellmound.rcha  rcha
  OC6  shellmound.oc  oc
  SFR6  shellmound.sfr  sfr
END packages

