# shellmound model version 0.post258.dev0+g2de0f7d
# File created by modflow-setup version 0.post258.dev0+g2de0f7d at 2021-05-19 11:49:16
# MODFLOW-6 SFR input; created by SFRmaker v. 0.8.0.post10.dev0+gb359076

BEGIN Options
  save_flows
  budget fileout shellmound.sfr.out.bin
  stage fileout shellmound.sfr.stage.bin
  obs6 filein shellmound.sfr.obs
  unit_conversion  86400.0
  auxiliary line_id
END Options

BEGIN Dimensions
  NREACHES 253
END Dimensions

BEGIN Packagedata
  open/close external/shellmound_packagedata.dat
END Packagedata

BEGIN Connectiondata
  1 -2
  2 -3 1
  3 -13 2
  4 -5
  5 -6 4
  6 -15 5
  7 -8
  8 -9 7
  9 -10 8
  10 -11 9
  11 -12 10
  12 -17 11
  13 -14 3
  14 -18 13
  15 -16 6
  16 -19 15
  17 -21 12
  18 -22 14
  19 -20 16
  20 -22 19
  21 -27 17
  22 -23 18 20
  23 -24 22
  24 -25 23
  25 -26 24
  26 -28 25
  27 -34 21
  28 -35 26
  29 -30
  30 -31 29
  31 -32 30
  32 -33 31
  33 -36 32
  34 -38 27
  35 -42 28
  36 -37 33
  37 -46 36
  38 -39 34
  39 -40 38
  40 -41 39
  41 -50 40
  42 -43 35
  43 -56 42
  44 -45
  45 -63 44
  46 -47 37
  47 -48 46
  48 -49 47
  49 -63 48
  50 -51 41
  51 -52 50
  52 -53 51
  53 -54 52
  54 -55 53
  55 -66 54
  56 -74 43
  57 -58
  58 -59 57
  59 -60 58
  60 -61 59
  61 -62 60
  62 -77 61
  63 -64 45 49
  64 -65 63
  65 -82 64
  66 -67 55
  67 -68 66
  68 -69 67
  69 -70 68
  70 -71 69
  71 -72 70
  72 -73 71
  73 -84 72
  74 -75 56
  75 -84 74
  76 -86
  77 -78 62
  78 -79 77
  79 -87 78
  80 -81
  81 -88 80
  82 -83 65
  83 -100 82
  84 -85 73 75
  85 -101 84
  86 -102 76
  87 -105 79
  88 -89 81
  89 -90 88
  90 -91 89
  91 -92 90
  92 -93 91
  93 -94 92
  94 -105 93
  95 -96
  96 -97 95
  97 -98 96
  98 -99 97
  99 -110 98
  100 -115 83
  101 -116 85
  102 -103 86
  103 -104 102
  104 -116 103
  105 -106 87 94
  106 -107 105
  107 -108 106
  108 -109 107
  109 -119 108
  110 -111 99
  111 -112 110
  112 -113 111
  113 -114 112
  114 -123 113
  115 -124 100
  116 -117 101 104
  117 -118 116
  118 -124 117
  119 -120 109
  120 -121 119
  121 -122 120
  122 -125 121
  123 -128 114
  124 -130 115 118
  125 -126 122
  126 -127 125
  127 -141 126
  128 -129 123
  129 -143 128
  130 -143 124
  131 -132
  132 -133 131
  133 -134 132
  134 -135 133
  135 -136 134
  136 -137 135
  137 -138 136
  138 -139 137
  139 -140 138
  140 -145 139
  141 -142 127
  142 -149 141
  143 -144 129 130
  144 -162 143
  145 -146 140
  146 -147 145
  147 -148 146
  148 -162 147
  149 -150 142
  150 -151 149
  151 -152 150
  152 -153 151
  153 -154 152
  154 -155 153
  155 -156 154
  156 -157 155
  157 -158 156
  158 -159 157
  159 -160 158
  160 -161 159
  161 -163 160
  162 -167 144 148
  163 -164 161
  164 -165 163
  165 -166 164
  166 -171 165
  167 -168 162
  168 -169 167
  169 -170 168
  170 -173 169
  171 -172 166
  172 -178 171
  173 -174 170
  174 -180 173
  175 -176
  176 -177 175
  177 -181 176
  178 -179 172
  179 -184 178
  180 -187 174
  181 -182 177
  182 -183 181
  183 -188 182
  184 -185 179
  185 -186 184
  186 -189 185
  187 -191 180
  188 -196 183
  189 -190 186
  190 -203 189
  191 -192 187
  192 -193 191
  193 -194 192
  194 -195 193
  195 -211 194
  196 -197 188
  197 -198 196
  198 -199 197
  199 -200 198
  200 -212 199
  201 -212
  202 -213
  203 -204 190
  204 -205 203
  205 -206 204
  206 -207 205
  207 -208 206
  208 -209 207
  209 -214 208
  210 -215
  211 -220 195
  212 -221 200 201
  213 -227 202
  214 -228 209
  215 -216 210
  216 -228 215
  217 -218
  218 -219 217
  219 -230 218
  220 -233 211
  221 -222 212
  222 -223 221
  223 -237 222
  224 -244
  225 -226
  226 -244 225
  227 -249 213
  228 214 216
  229 
  230 219
  231 -232
  232 231
  233 -234 220
  234 -235 233
  235 -236 234
  236 235
  237 -238 223
  238 237
  239 -240
  240 -241 239
  241 -242 240
  242 -243 241
  243 242
  244 224 226
  245 -246
  246 -247 245
  247 -248 246
  248 247
  249 227
  250 
  251 -252
  252 251
  253 
END Connectiondata

BEGIN Period 1
1 runoff 1154.1989085119048
2 runoff 1154.1989085119048
3 runoff 1154.1989085119048
4 runoff 3459.574056691176
5 runoff 3459.574056691176
6 runoff 3459.574056691176
7 runoff 273.7493092156863
8 runoff 273.7493092156863
9 runoff 273.7493092156863
10 runoff 273.7493092156863
11 runoff 273.7493092156863
12 runoff 273.7493092156863
13 runoff 743.87812
14 runoff 743.87812
17 runoff 565.4409421290322
18 runoff 1176.7845364705881
22 runoff 757.8831296969696
23 runoff 757.8831296969696
24 runoff 757.8831296969696
25 runoff 757.8831296969696
26 runoff 757.8831296969696
27 runoff 519.8770711612904
29 runoff 6459.728254223017
30 runoff 6459.728254223017
31 runoff 6459.728254223017
32 runoff 6459.728254223017
33 runoff 6459.728254223017
34 runoff 565.4409421290322
35 runoff 678.8209170588236
36 runoff 758.2547683937121
37 runoff 758.2547683937121
38 runoff 714.0080483822092
38 inflow 29378524.8319457
39 runoff 714.0080483822092
40 runoff 714.0080483822092
41 runoff 714.0080483822092
42 runoff 607.8480151515154
43 runoff 607.8480151515154
44 runoff 6826.294626389928
45 runoff 6826.294626389928
46 runoff 1545.2479235458372
47 runoff 1545.2479235458372
48 runoff 1545.2479235458372
49 runoff 1545.2479235458372
50 runoff 292.1394482352941
51 runoff 292.1394482352941
52 runoff 292.1394482352941
53 runoff 292.1394482352941
54 runoff 292.1394482352941
55 runoff 292.1394482352941
56 runoff 6810.326549089064
57 inflow 22958953.446651585
63 runoff 801.6689256862746
64 runoff 801.6689256862746
65 runoff 801.6689256862746
66 runoff 626.3894622306723
67 runoff 626.3894622306723
68 runoff 626.3894622306723
69 runoff 626.3894622306723
70 runoff 626.3894622306723
71 runoff 626.3894622306723
72 runoff 626.3894622306723
73 runoff 626.3894622306723
74 runoff 1609.5864569824998
75 runoff 1609.5864569824998
80 runoff 5352.433745653361
81 runoff 5352.433745653361
84 runoff 1076.8437109571428
85 runoff 1076.8437109571428
86 runoff 664.8968013393941
88 runoff 287.0398092962785
89 runoff 287.0398092962785
90 runoff 287.0398092962785
91 runoff 287.0398092962785
92 runoff 287.0398092962785
93 runoff 287.0398092962785
94 runoff 287.0398092962785
95 runoff 1325.1764059112943
96 runoff 1325.1764059112943
97 runoff 1325.1764059112943
98 runoff 1325.1764059112943
99 runoff 1325.1764059112943
102 runoff 2969.0683584992785
103 runoff 2969.0683584992785
104 runoff 2969.0683584992785
105 runoff 201.26642184347827
106 runoff 201.26642184347827
107 runoff 201.26642184347827
108 runoff 201.26642184347827
109 runoff 201.26642184347827
110 runoff 1236.0864249142855
111 runoff 1236.0864249142855
112 runoff 1236.0864249142855
113 runoff 1236.0864249142855
114 runoff 1236.0864249142855
119 runoff 763.8564201529412
120 runoff 763.8564201529412
121 runoff 763.8564201529412
122 runoff 763.8564201529412
123 runoff 2707.455730657143
125 runoff 332.1274583333333
126 runoff 332.1274583333333
127 runoff 332.1274583333333
128 runoff 743.256482495671
129 runoff 743.256482495671
130 runoff 1508.608768242857
131 runoff 1920.2200180602572
132 runoff 1920.2200180602572
133 runoff 1920.2200180602572
134 runoff 1920.2200180602572
135 runoff 1920.2200180602572
136 runoff 1920.2200180602572
137 runoff 1920.2200180602572
138 runoff 1920.2200180602572
139 runoff 1920.2200180602572
140 runoff 1920.2200180602572
141 runoff 356.3174491323529
142 runoff 356.3174491323529
145 runoff 2032.0024034275211
146 runoff 2032.0024034275211
147 runoff 2032.0024034275211
148 runoff 2032.0024034275211
149 runoff 516.1998992444835
150 runoff 516.1998992444835
151 runoff 516.1998992444835
152 runoff 516.1998992444835
153 runoff 516.1998992444835
154 runoff 516.1998992444835
155 runoff 516.1998992444835
156 runoff 516.1998992444835
157 runoff 516.1998992444835
158 runoff 516.1998992444835
159 runoff 516.1998992444835
160 runoff 516.1998992444835
161 runoff 516.1998992444835
162 runoff 3027.7006606071423
163 runoff 134.5264673642857
164 runoff 134.5264673642857
165 runoff 134.5264673642857
166 runoff 134.5264673642857
167 runoff 2148.669507857143
168 runoff 2148.669507857143
169 runoff 2148.669507857143
170 runoff 2148.669507857143
171 runoff 973.2450702428572
172 runoff 973.2450702428572
175 runoff 11930.666149624165
176 runoff 11930.666149624165
177 runoff 11930.666149624165
178 runoff 2239.9339185714284
179 runoff 2239.9339185714284
181 runoff 176.50436471568628
182 runoff 176.50436471568628
183 runoff 176.50436471568628
184 runoff 881.3522572973085
185 runoff 881.3522572973085
186 runoff 881.3522572973085
188 runoff 10292.94151677669
189 runoff 1283.5213054442856
190 runoff 1283.5213054442856
191 runoff 664.5084808914286
192 runoff 664.5084808914286
193 runoff 664.5084808914286
194 runoff 664.5084808914286
195 runoff 664.5084808914286
196 runoff 446.96111039999994
197 runoff 446.96111039999994
198 runoff 446.96111039999994
199 runoff 446.96111039999994
200 runoff 446.96111039999994
201 runoff 5035.212750973963
202 runoff 6852.762242362088
203 runoff 509.2515251428571
204 runoff 509.2515251428571
205 runoff 509.2515251428571
206 runoff 509.2515251428571
207 runoff 509.2515251428571
208 runoff 509.2515251428571
209 runoff 509.2515251428571
210 runoff 13230.459611155613
213 runoff 2565.863755634286
214 runoff 518.4457331212121
217 runoff 889.5123917142859
218 runoff 889.5123917142859
219 runoff 889.5123917142859
224 runoff 29169.09038605374
225 runoff 851.4658795588234
226 runoff 851.4658795588234
227 runoff 428.58002704285707
228 runoff 1746.8394514424251
229 runoff 5327.389797142858
230 runoff 2091.4150998950236
231 runoff 365.28183666666666
232 runoff 365.28183666666666
233 runoff 4281.390053035428
234 runoff 4281.390053035428
235 runoff 4281.390053035428
236 runoff 4281.390053035428
239 runoff 2233.728874285715
240 runoff 2233.728874285715
241 runoff 2233.728874285715
242 runoff 2233.728874285715
243 runoff 2233.728874285715
245 runoff 2541.8152300628003
246 runoff 2541.8152300628003
247 runoff 2541.8152300628003
248 runoff 2541.8152300628003
250 runoff 537.4758822696969
251 runoff 2949.3091009534282
252 runoff 2949.3091009534282
253 runoff 10276.722227692751
END Period 1

BEGIN Period 2
1 runoff 637.9307166666667
2 runoff 637.9307166666667
3 runoff 637.9307166666667
4 runoff 2601.1922855555554
5 runoff 2601.1922855555554
6 runoff 2601.1922855555554
7 runoff 183.60751377777777
8 runoff 183.60751377777777
9 runoff 183.60751377777777
10 runoff 183.60751377777777
11 runoff 183.60751377777777
12 runoff 183.60751377777777
13 runoff 405.55055
14 runoff 405.55055
17 runoff 336.11328
18 runoff 811.1011
22 runoff 373.93901999999997
23 runoff 373.93901999999997
24 runoff 373.93901999999997
25 runoff 373.93901999999997
26 runoff 373.93901999999997
27 runoff 336.11328
29 runoff 3379.3469474
30 runoff 3379.3469474
31 runoff 3379.3469474
32 runoff 3379.3469474
33 runoff 3379.3469474
34 runoff 336.11328
35 runoff 468.7624333333334
36 runoff 421.8738708333333
37 runoff 421.8738708333333
38 runoff 364.781635
38 inflow 32174185.357777786
39 runoff 364.781635
40 runoff 364.781635
41 runoff 364.781635
42 runoff 399.7185
43 runoff 399.7185
44 runoff 3745.5875905
45 runoff 3745.5875905
46 runoff 803.5149647916667
47 runoff 803.5149647916667
48 runoff 803.5149647916667
49 runoff 803.5149647916667
50 runoff 191.28141666666667
51 runoff 191.28141666666667
52 runoff 191.28141666666667
53 runoff 191.28141666666667
54 runoff 191.28141666666667
55 runoff 191.28141666666667
56 runoff 3676.3657999999996
57 inflow 24737787.25493827
63 runoff 299.0954666666667
64 runoff 299.0954666666667
65 runoff 299.0954666666667
66 runoff 334.62749287500003
67 runoff 334.62749287500003
68 runoff 334.62749287500003
69 runoff 334.62749287500003
70 runoff 334.62749287500003
71 runoff 334.62749287500003
72 runoff 334.62749287500003
73 runoff 334.62749287500003
74 runoff 308.0152225
75 runoff 308.0152225
80 runoff 3536.7221499999996
81 runoff 3536.7221499999996
84 runoff 467.5410111666667
85 runoff 467.5410111666667
86 runoff 405.80199999999996
88 runoff 170.54377142857143
89 runoff 170.54377142857143
90 runoff 170.54377142857143
91 runoff 170.54377142857143
92 runoff 170.54377142857143
93 runoff 170.54377142857143
94 runoff 170.54377142857143
95 runoff 665.5096109333333
96 runoff 665.5096109333333
97 runoff 665.5096109333333
98 runoff 665.5096109333333
99 runoff 665.5096109333333
102 runoff 1472.1465777777778
103 runoff 1472.1465777777778
104 runoff 1472.1465777777778
105 runoff 53.4696462
106 runoff 53.4696462
107 runoff 53.4696462
108 runoff 53.4696462
109 runoff 53.4696462
110 runoff 681.0110873333334
111 runoff 681.0110873333334
112 runoff 681.0110873333334
113 runoff 681.0110873333334
114 runoff 681.0110873333334
119 runoff 333.4255125
120 runoff 333.4255125
121 runoff 333.4255125
122 runoff 333.4255125
123 runoff 1203.4137176666666
125 runoff 170.15804444444444
126 runoff 170.15804444444444
127 runoff 170.15804444444444
128 runoff 325.38625
129 runoff 325.38625
130 runoff 736.0537599999999
131 runoff 1137.1753956333332
132 runoff 1137.1753956333332
133 runoff 1137.1753956333332
134 runoff 1137.1753956333332
135 runoff 1137.1753956333332
136 runoff 1137.1753956333332
137 runoff 1137.1753956333332
138 runoff 1137.1753956333332
139 runoff 1137.1753956333332
140 runoff 1137.1753956333332
141 runoff 175.21876666666665
142 runoff 175.21876666666665
145 runoff 993.6722791666666
146 runoff 993.6722791666666
147 runoff 993.6722791666666
148 runoff 993.6722791666666
149 runoff 255.7593971794872
150 runoff 255.7593971794872
151 runoff 255.7593971794872
152 runoff 255.7593971794872
153 runoff 255.7593971794872
154 runoff 255.7593971794872
155 runoff 255.7593971794872
156 runoff 255.7593971794872
157 runoff 255.7593971794872
158 runoff 255.7593971794872
159 runoff 255.7593971794872
160 runoff 255.7593971794872
161 runoff 255.7593971794872
162 runoff 1787.6831
163 runoff 78.7551025
164 runoff 78.7551025
165 runoff 78.7551025
166 runoff 78.7551025
167 runoff 944.6932583333335
168 runoff 944.6932583333335
169 runoff 944.6932583333335
170 runoff 944.6932583333335
171 runoff 422.36489
172 runoff 422.36489
175 runoff 7229.412557777777
176 runoff 7229.412557777777
177 runoff 7229.412557777777
178 runoff 1253.8808333333334
179 runoff 1253.8808333333334
181 runoff 108.73534666666667
182 runoff 108.73534666666667
183 runoff 108.73534666666667
184 runoff 470.0975067777778
185 runoff 470.0975067777778
186 runoff 470.0975067777778
188 runoff 5219.905858
189 runoff 942.4660333333333
190 runoff 942.4660333333333
191 runoff 466.4911466666666
192 runoff 466.4911466666666
193 runoff 466.4911466666666
194 runoff 466.4911466666666
195 runoff 466.4911466666666
196 runoff 211.59155333333334
197 runoff 211.59155333333334
198 runoff 211.59155333333334
199 runoff 211.59155333333334
200 runoff 211.59155333333334
201 runoff 1958.9921499999998
202 runoff 3113.333607266666
203 runoff 369.24544761904764
204 runoff 369.24544761904764
205 runoff 369.24544761904764
206 runoff 369.24544761904764
207 runoff 369.24544761904764
208 runoff 369.24544761904764
209 runoff 369.24544761904764
210 runoff 10946.422702
213 runoff 283.3596824
214 runoff 332.2463423333333
217 runoff 402.55045333333334
218 runoff 402.55045333333334
219 runoff 402.55045333333334
224 runoff 13971.391794466668
225 runoff 433.3016333333333
226 runoff 433.3016333333333
227 runoff 283.3596824
228 runoff 3101.625
229 runoff 1826.2716333333335
230 runoff 907.4433143666668
231 runoff 144.24794999999997
232 runoff 144.24794999999997
233 runoff 2342.8244065833333
234 runoff 2342.8244065833333
235 runoff 2342.8244065833333
236 runoff 2342.8244065833333
239 runoff 1276.8120666666669
240 runoff 1276.8120666666669
241 runoff 1276.8120666666669
242 runoff 1276.8120666666669
243 runoff 1276.8120666666669
245 runoff 704.4704072583334
246 runoff 704.4704072583334
247 runoff 704.4704072583334
248 runoff 704.4704072583334
250 runoff 314.05739
251 runoff 1759.8753720666668
252 runoff 1759.8753720666668
253 runoff 6282.813288333334
END Period 2

BEGIN Period 3
1 runoff 553.9633827777777
2 runoff 553.9633827777777
3 runoff 553.9633827777777
4 runoff 1314.7317555555555
5 runoff 1314.7317555555555
6 runoff 1314.7317555555555
7 runoff 154.47622222222222
8 runoff 154.47622222222222
9 runoff 154.47622222222222
10 runoff 154.47622222222222
11 runoff 154.47622222222222
12 runoff 154.47622222222222
13 runoff 206.01704166666664
14 runoff 206.01704166666664
17 runoff 178.07128333333333
18 runoff 412.0340833333333
22 runoff 189.40842
23 runoff 189.40842
24 runoff 189.40842
25 runoff 189.40842
26 runoff 189.40842
27 runoff 178.07128333333333
29 runoff 4444.907221016668
30 runoff 4444.907221016668
31 runoff 4444.907221016668
32 runoff 4444.907221016668
33 runoff 4444.907221016668
34 runoff 178.07128333333333
35 runoff 479.52855
36 runoff 494.239865
37 runoff 494.239865
38 runoff 187.73973333333333
38 inflow 14951932.793333335
39 runoff 187.73973333333333
40 runoff 187.73973333333333
41 runoff 187.73973333333333
42 runoff 198.8615
43 runoff 198.8615
44 runoff 3041.2819875000005
45 runoff 3041.2819875000005
46 runoff 819.7263493333332
47 runoff 819.7263493333332
48 runoff 819.7263493333332
49 runoff 819.7263493333332
50 runoff 91.53710833333334
51 runoff 91.53710833333334
52 runoff 91.53710833333334
53 runoff 91.53710833333334
54 runoff 91.53710833333334
55 runoff 91.53710833333334
56 runoff 1832.8750666666665
57 inflow 4486422.606666666
63 runoff 160.61122777777777
64 runoff 160.61122777777777
65 runoff 160.61122777777777
66 runoff 222.1086458333333
67 runoff 222.1086458333333
68 runoff 222.1086458333333
69 runoff 222.1086458333333
70 runoff 222.1086458333333
71 runoff 222.1086458333333
72 runoff 222.1086458333333
73 runoff 222.1086458333333
74 runoff 185.73971666666665
75 runoff 185.73971666666665
80 runoff 4770.756079416667
81 runoff 4770.756079416667
84 runoff 390.02281666666664
85 runoff 390.02281666666664
86 runoff 224.67926666666668
88 runoff 223.4410823809524
89 runoff 223.4410823809524
90 runoff 223.4410823809524
91 runoff 223.4410823809524
92 runoff 223.4410823809524
93 runoff 223.4410823809524
94 runoff 223.4410823809524
95 runoff 798.2122733333333
96 runoff 798.2122733333333
97 runoff 798.2122733333333
98 runoff 798.2122733333333
99 runoff 798.2122733333333
102 runoff 1386.1187666666667
103 runoff 1386.1187666666667
104 runoff 1386.1187666666667
105 runoff 23.83255333333333
106 runoff 23.83255333333333
107 runoff 23.83255333333333
108 runoff 23.83255333333333
109 runoff 23.83255333333333
110 runoff 737.4422666666666
111 runoff 737.4422666666666
112 runoff 737.4422666666666
113 runoff 737.4422666666666
114 runoff 737.4422666666666
119 runoff 331.019856875
120 runoff 331.019856875
121 runoff 331.019856875
122 runoff 331.019856875
123 runoff 1281.2761666666665
125 runoff 199.70555555555555
126 runoff 199.70555555555555
127 runoff 199.70555555555555
128 runoff 188.34888833333335
129 runoff 188.34888833333335
130 runoff 748.4229333333333
131 runoff 957.5183066666666
132 runoff 957.5183066666666
133 runoff 957.5183066666666
134 runoff 957.5183066666666
135 runoff 957.5183066666666
136 runoff 957.5183066666666
137 runoff 957.5183066666666
138 runoff 957.5183066666666
139 runoff 957.5183066666666
140 runoff 957.5183066666666
141 runoff 221.82179166666666
142 runoff 221.82179166666666
145 runoff 772.8510416666667
146 runoff 772.8510416666667
147 runoff 772.8510416666667
148 runoff 772.8510416666667
149 runoff 324.8033022051282
150 runoff 324.8033022051282
151 runoff 324.8033022051282
152 runoff 324.8033022051282
153 runoff 324.8033022051282
154 runoff 324.8033022051282
155 runoff 324.8033022051282
156 runoff 324.8033022051282
157 runoff 324.8033022051282
158 runoff 324.8033022051282
159 runoff 324.8033022051282
160 runoff 324.8033022051282
161 runoff 324.8033022051282
162 runoff 2680.0750000000003
163 runoff 78.32732916666667
164 runoff 78.32732916666667
165 runoff 78.32732916666667
166 runoff 78.32732916666667
167 runoff 1397.9195833333333
168 runoff 1397.9195833333333
169 runoff 1397.9195833333333
170 runoff 1397.9195833333333
171 runoff 380.66636666666665
172 runoff 380.66636666666665
175 runoff 9684.989605555556
176 runoff 9684.989605555556
177 runoff 9684.989605555556
178 runoff 1573.6053333333334
179 runoff 1573.6053333333334
181 runoff 106.24135
182 runoff 106.24135
183 runoff 106.24135
184 runoff 566.3387234166667
185 runoff 566.3387234166667
186 runoff 566.3387234166667
188 runoff 5360.322979886667
189 runoff 1311.37375
190 runoff 1311.37375
191 runoff 724.8283333333333
192 runoff 724.8283333333333
193 runoff 724.8283333333333
194 runoff 724.8283333333333
195 runoff 724.8283333333333
196 runoff 192.69000000000003
197 runoff 192.69000000000003
198 runoff 192.69000000000003
199 runoff 192.69000000000003
200 runoff 192.69000000000003
201 runoff 1924.472766666667
202 runoff 3021.3010166666663
203 runoff 563.5648095238095
204 runoff 563.5648095238095
205 runoff 563.5648095238095
206 runoff 563.5648095238095
207 runoff 563.5648095238095
208 runoff 563.5648095238095
209 runoff 563.5648095238095
210 runoff 13450.828366875332
213 runoff 372.4253833333334
214 runoff 385.5362333333333
217 runoff 394.7321111111111
218 runoff 394.7321111111111
219 runoff 394.7321111111111
224 runoff 16643.946266666666
225 runoff 618.2748333333334
226 runoff 618.2748333333334
227 runoff 372.4253833333334
228 runoff 3279.838333333333
229 runoff 2627.074333333333
230 runoff 854.0328333333332
231 runoff 207.90324999999999
232 runoff 207.90324999999999
233 runoff 3859.821515625
234 runoff 3859.821515625
235 runoff 3859.821515625
236 runoff 3859.821515625
239 runoff 2032.5556666666666
240 runoff 2032.5556666666666
241 runoff 2032.5556666666666
242 runoff 2032.5556666666666
243 runoff 2032.5556666666666
245 runoff 819.6880208333333
246 runoff 819.6880208333333
247 runoff 819.6880208333333
248 runoff 819.6880208333333
250 runoff 220.96233499999997
251 runoff 2619.6191999999996
252 runoff 2619.6191999999996
253 runoff 4726.068174999999
END Period 3

BEGIN Period 4
1 runoff 516.9924227777778
2 runoff 516.9924227777778
3 runoff 516.9924227777778
4 runoff 2254.443432777778
5 runoff 2254.443432777778
6 runoff 2254.443432777778
7 runoff 138.60645833333334
8 runoff 138.60645833333334
9 runoff 138.60645833333334
10 runoff 138.60645833333334
11 runoff 138.60645833333334
12 runoff 138.60645833333334
13 runoff 175.96154833333333
14 runoff 175.96154833333333
17 runoff 217.31719
18 runoff 552.5753966666667
22 runoff 231.70311666666663
23 runoff 231.70311666666663
24 runoff 231.70311666666663
25 runoff 231.70311666666663
26 runoff 231.70311666666663
27 runoff 180.71869
29 runoff 3482.0055805
30 runoff 3482.0055805
31 runoff 3482.0055805
32 runoff 3482.0055805
33 runoff 3482.0055805
34 runoff 217.31719
35 runoff 339.51923833333336
36 runoff 605.8418972433333
37 runoff 605.8418972433333
38 runoff 223.70948750000002
38 inflow 27038021.44333333
39 runoff 223.70948750000002
40 runoff 223.70948750000002
41 runoff 223.70948750000002
42 runoff 217.840225
43 runoff 217.840225
44 runoff 4118.901175
45 runoff 4118.901175
46 runoff 1030.3879634412501
47 runoff 1030.3879634412501
48 runoff 1030.3879634412501
49 runoff 1030.3879634412501
50 runoff 128.71426666666667
51 runoff 128.71426666666667
52 runoff 128.71426666666667
53 runoff 128.71426666666667
54 runoff 128.71426666666667
55 runoff 128.71426666666667
56 runoff 2245.6307566666665
57 inflow 25694351.745
63 runoff 382.3999011111111
64 runoff 382.3999011111111
65 runoff 382.3999011111111
66 runoff 263.3529541666667
67 runoff 263.3529541666667
68 runoff 263.3529541666667
69 runoff 263.3529541666667
70 runoff 263.3529541666667
71 runoff 263.3529541666667
72 runoff 263.3529541666667
73 runoff 263.3529541666667
74 runoff 144.70855666666668
75 runoff 144.70855666666668
80 runoff 3627.4019583333334
81 runoff 3627.4019583333334
84 runoff 508.47676666666666
85 runoff 508.47676666666666
86 runoff 373.72454999999997
88 runoff 195.20565476190475
89 runoff 195.20565476190475
90 runoff 195.20565476190475
91 runoff 195.20565476190475
92 runoff 195.20565476190475
93 runoff 195.20565476190475
94 runoff 195.20565476190475
95 runoff 721.2784081333333
96 runoff 721.2784081333333
97 runoff 721.2784081333333
98 runoff 721.2784081333333
99 runoff 721.2784081333333
102 runoff 1731.7048955555556
103 runoff 1731.7048955555556
104 runoff 1731.7048955555556
105 runoff 83.86805666666667
106 runoff 83.86805666666667
107 runoff 83.86805666666667
108 runoff 83.86805666666667
109 runoff 83.86805666666667
110 runoff 903.1748666666666
111 runoff 903.1748666666666
112 runoff 903.1748666666666
113 runoff 903.1748666666666
114 runoff 903.1748666666666
119 runoff 331.4236601333334
120 runoff 331.4236601333334
121 runoff 331.4236601333334
122 runoff 331.4236601333334
123 runoff 1679.558266666667
125 runoff 121.57477833333331
126 runoff 121.57477833333331
127 runoff 121.57477833333331
128 runoff 209.98489333333336
129 runoff 209.98489333333336
130 runoff 991.2724999999999
131 runoff 1013.6264216666666
132 runoff 1013.6264216666666
133 runoff 1013.6264216666666
134 runoff 1013.6264216666666
135 runoff 1013.6264216666666
136 runoff 1013.6264216666666
137 runoff 1013.6264216666666
138 runoff 1013.6264216666666
139 runoff 1013.6264216666666
140 runoff 1013.6264216666666
141 runoff 154.23003674999998
142 runoff 154.23003674999998
145 runoff 970.4782833333334
146 runoff 970.4782833333334
147 runoff 970.4782833333334
148 runoff 970.4782833333334
149 runoff 214.42254997179487
150 runoff 214.42254997179487
151 runoff 214.42254997179487
152 runoff 214.42254997179487
153 runoff 214.42254997179487
154 runoff 214.42254997179487
155 runoff 214.42254997179487
156 runoff 214.42254997179487
157 runoff 214.42254997179487
158 runoff 214.42254997179487
159 runoff 214.42254997179487
160 runoff 214.42254997179487
161 runoff 214.42254997179487
162 runoff 1773.1234793999997
163 runoff 69.734392125
164 runoff 69.734392125
165 runoff 69.734392125
166 runoff 69.734392125
167 runoff 1383.69375
168 runoff 1383.69375
169 runoff 1383.69375
170 runoff 1383.69375
171 runoff 525.8023
172 runoff 525.8023
175 runoff 7603.367552722222
176 runoff 7603.367552722222
177 runoff 7603.367552722222
178 runoff 1184.7925
179 runoff 1184.7925
181 runoff 102.71506394444445
182 runoff 102.71506394444445
183 runoff 102.71506394444445
184 runoff 356.2596983055555
185 runoff 356.2596983055555
186 runoff 356.2596983055555
188 runoff 5722.154004383334
189 runoff 664.1411000000002
190 runoff 664.1411000000002
191 runoff 644.2813333333332
192 runoff 644.2813333333332
193 runoff 644.2813333333332
194 runoff 644.2813333333332
195 runoff 644.2813333333332
196 runoff 190.26548893333336
197 runoff 190.26548893333336
198 runoff 190.26548893333336
199 runoff 190.26548893333336
200 runoff 190.26548893333336
201 runoff 2967.443003
202 runoff 4261.678500385334
203 runoff 322.16377619047626
204 runoff 322.16377619047626
205 runoff 322.16377619047626
206 runoff 322.16377619047626
207 runoff 322.16377619047626
208 runoff 322.16377619047626
209 runoff 322.16377619047626
210 runoff 7965.40137825
213 runoff 1493.4348499999999
214 runoff 290.64056
217 runoff 546.1183333333335
218 runoff 546.1183333333335
219 runoff 546.1183333333335
224 runoff 18264.370950000004
225 runoff 529.2331925
226 runoff 529.2331925
227 runoff 345.77756666666664
228 runoff 1513.1182083333333
229 runoff 2899.522166666667
230 runoff 1158.372968
231 runoff 180.69618333333332
232 runoff 180.69618333333332
233 runoff 3534.123161249999
234 runoff 3534.123161249999
235 runoff 3534.123161249999
236 runoff 3534.123161249999
239 runoff 1684.9399999999998
240 runoff 1684.9399999999998
241 runoff 1684.9399999999998
242 runoff 1684.9399999999998
243 runoff 1684.9399999999998
245 runoff 1409.6494258333335
246 runoff 1409.6494258333335
247 runoff 1409.6494258333335
248 runoff 1409.6494258333335
250 runoff 330.7464928333334
251 runoff 2356.6870666666664
252 runoff 2356.6870666666664
253 runoff 4587.296531666667
END Period 4

BEGIN Period 5
1 runoff 1100.1329466666666
2 runoff 1100.1329466666666
3 runoff 1100.1329466666666
4 runoff 3520.606167777778
5 runoff 3520.606167777778
6 runoff 3520.606167777778
7 runoff 293.03568666666666
8 runoff 293.03568666666666
9 runoff 293.03568666666666
10 runoff 293.03568666666666
11 runoff 293.03568666666666
12 runoff 293.03568666666666
13 runoff 321.27337
14 runoff 321.27337
17 runoff 818.30675
18 runoff 1446.9307533333333
22 runoff 660.0806399999999
23 runoff 660.0806399999999
24 runoff 660.0806399999999
25 runoff 660.0806399999999
26 runoff 660.0806399999999
27 runoff 566.85025
29 runoff 4697.0555496666675
30 runoff 4697.0555496666675
31 runoff 4697.0555496666675
32 runoff 4697.0555496666675
33 runoff 4697.0555496666675
34 runoff 818.30675
35 runoff 741.8637999999999
36 runoff 724.8542112499999
37 runoff 724.8542112499999
38 runoff 733.067145
38 inflow 25262586.885
39 runoff 733.067145
40 runoff 733.067145
41 runoff 733.067145
42 runoff 741.8637999999999
43 runoff 741.8637999999999
44 runoff 6979.28945
45 runoff 6979.28945
46 runoff 1658.4514988333335
47 runoff 1658.4514988333335
48 runoff 1658.4514988333335
49 runoff 1658.4514988333335
50 runoff 346.42182055555554
51 runoff 346.42182055555554
52 runoff 346.42182055555554
53 runoff 346.42182055555554
54 runoff 346.42182055555554
55 runoff 346.42182055555554
56 runoff 6834.311940766667
57 inflow 26436558.596666668
63 runoff 1106.3114611111112
64 runoff 1106.3114611111112
65 runoff 1106.3114611111112
66 runoff 682.901006875
67 runoff 682.901006875
68 runoff 682.901006875
69 runoff 682.901006875
70 runoff 682.901006875
71 runoff 682.901006875
72 runoff 682.901006875
73 runoff 682.901006875
74 runoff 374.49460780000004
75 runoff 374.49460780000004
80 runoff 4960.4769125
81 runoff 4960.4769125
84 runoff 1308.2591333333332
85 runoff 1308.2591333333332
86 runoff 737.0404
88 runoff 263.04765754761905
89 runoff 263.04765754761905
90 runoff 263.04765754761905
91 runoff 263.04765754761905
92 runoff 263.04765754761905
93 runoff 263.04765754761905
94 runoff 263.04765754761905
95 runoff 978.2588549433334
96 runoff 978.2588549433334