# shellmound model version 0.post258.dev0+g2de0f7d
# File generated by Flopy version 3.3.4 on 05/19/2021 at 11:49:16.
# via modflow-setup version 0.post258.dev0+g2de0f7d at 2021-05-19 11:49:16
BEGIN options
  BOUNDNAMES
  PRINT_INPUT
  PRINT_FLOWS
  SAVE_FLOWS
END options

BEGIN dimensions
  MAXBOUND  337
END dimensions

BEGIN period  2
    OPEN/CLOSE  './external/wel_001.dat'
END period  2

BEGIN period  3
    OPEN/CLOSE  './external/wel_002.dat'
END period  3

BEGIN period  4
    OPEN/CLOSE  './external/wel_003.dat'
END period  4

BEGIN period  5
    OPEN/CLOSE  './external/wel_004.dat'
END period  5

BEGIN period  6
    OPEN/CLOSE  './external/wel_005.dat'
END period  6

BEGIN period  7
    OPEN/CLOSE  './external/wel_006.dat'
END period  7

BEGIN period  8
    OPEN/CLOSE  './external/wel_007.dat'
END period  8

BEGIN period  9
    OPEN/CLOSE  './external/wel_008.dat'
END period  9

BEGIN period  10
    OPEN/CLOSE  './external/wel_009.dat'
END period  10

BEGIN period  11
    OPEN/CLOSE  './external/wel_010.dat'
END period  11

BEGIN period  12
    OPEN/CLOSE  './external/wel_011.dat'
END period  12

BEGIN period  13
    OPEN/CLOSE  './external/wel_012.dat'
END period  13

BEGIN period  14
    OPEN/CLOSE  './external/wel_013.dat'
END period  14

BEGIN period  15
    OPEN/CLOSE  './external/wel_014.dat'
END period  15

BEGIN period  16
    OPEN/CLOSE  './external/wel_015.dat'
END period  16

BEGIN period  17
    OPEN/CLOSE  './external/wel_016.dat'
END period  17

BEGIN period  18
    OPEN/CLOSE  './external/wel_017.dat'
END period  18

BEGIN period  19
    OPEN/CLOSE  './external/wel_018.dat'
END period  19

