BEGIN options
  SAVE_FLOWS
END options

BEGIN griddata
  iconvert
    CONSTANT  1
  ss  LAYERED
    OPEN/CLOSE  './external/ss0.dat'  FACTOR  1.0
    OPEN/CLOSE  './external/ss1.dat'  FACTOR  1.0
    OPEN/CLOSE  './external/ss2.dat'  FACTOR  1.0
    OPEN/CLOSE  './external/ss3.dat'  FACTOR  1.0
    OPEN/CLOSE  './external/ss4.dat'  FACTOR  1.0
    OPEN/CLOSE  './external/ss5.dat'  FACTOR  1.0
    OPEN/CLOSE  './external/ss6.dat'  FACTOR  1.0
    OPEN/CLOSE  './external/ss7.dat'  FACTOR  1.0
    OPEN/CLOSE  './external/ss8.dat'  FACTOR  1.0
    OPEN/CLOSE  './external/ss9.dat'  FACTOR  1.0
    OPEN/CLOSE  './external/ss10.dat'  FACTOR  1.0
    OPEN/CLOSE  './external/ss11.dat'  FACTOR  1.0
    OPEN/CLOSE  './external/ss12.dat'  FACTOR  1.0
  sy  LAYERED
    OPEN/CLOSE  './external/sy0.dat'  FACTOR  1.0
    OPEN/CLOSE  './external/sy1.dat'  FACTOR  1.0
    OPEN/CLOSE  './external/sy2.dat'  FACTOR  1.0
    OPEN/CLOSE  './external/sy3.dat'  FACTOR  1.0
    OPEN/CLOSE  './external/sy4.dat'  FACTOR  1.0
    OPEN/CLOSE  './external/sy5.dat'  FACTOR  1.0
    OPEN/CLOSE  './external/sy6.dat'  FACTOR  1.0
    OPEN/CLOSE  './external/sy7.dat'  FACTOR  1.0
    OPEN/CLOSE  './external/sy8.dat'  FACTOR  1.0
    OPEN/CLOSE  './external/sy9.dat'  FACTOR  1.0
    OPEN/CLOSE  './external/sy10.dat'  FACTOR  1.0
    OPEN/CLOSE  './external/sy11.dat'  FACTOR  1.0
    OPEN/CLOSE  './external/sy12.dat'  FACTOR  1.0
END griddata

