# shellmound model version 0.post258.dev0+g2de0f7d
# File generated by Flopy version 3.3.4 on 05/19/2021 at 11:49:15.
# via modflow-setup version 0.post258.dev0+g2de0f7d at 2021-05-19 11:49:16
BEGIN options
  LIST  shellmound.list
  PRINT_INPUT
  SAVE_FLOWS
  NEWTON
END options

BEGIN packages
  DIS6  shellmound.dis  dis
  IC6  shellmound.ic  ic
  NPF6  shellmound.npf  npf
  STO6  shellmound.sto  sto
  RCH6  shellmound.rcha  rcha
  OC6  shellmound.oc  oc
  SFR6  shellmound.sfr  sfr_0
  WEL6  shellmound.wel  wel_0
  OBS6  shellmound.obs  obs_0
END packages

