# shellmound model version 0.post258.dev0+g2de0f7d
# File generated by Flopy version 3.3.4 on 05/19/2021 at 11:49:15.
# via modflow-setup version 0.post258.dev0+g2de0f7d at 2021-05-19 11:49:16
BEGIN options
  LENGTH_UNITS  meters
  XORIGIN  5.00955000E+05
  YORIGIN  1.17528500E+06
  ANGROT       0.00000000
END options

BEGIN dimensions
  NLAY  13
  NROW  30
  NCOL  35
END dimensions

BEGIN griddata
  delr
    CONSTANT    1000.00000000
  delc
    CONSTANT    1000.00000000
  top
    OPEN/CLOSE  './external/top.dat'  FACTOR  1.0
  botm  LAYERED
    OPEN/CLOSE  './external/botm_000.dat'  FACTOR  1.0
    OPEN/CLOSE  './external/botm_001.dat'  FACTOR  1.0
    OPEN/CLOSE  './external/botm_002.dat'  FACTOR  1.0
    OPEN/CLOSE  './external/botm_003.dat'  FACTOR  1.0
    OPEN/CLOSE  './external/botm_004.dat'  FACTOR  1.0
    OPEN/CLOSE  './external/botm_005.dat'  FACTOR  1.0
    OPEN/CLOSE  './external/botm_006.dat'  FACTOR  1.0
    OPEN/CLOSE  './external/botm_007.dat'  FACTOR  1.0
    OPEN/CLOSE  './external/botm_008.dat'  FACTOR  1.0
    OPEN/CLOSE  './external/botm_009.dat'  FACTOR  1.0
    OPEN/CLOSE  './external/botm_010.dat'  FACTOR  1.0
    OPEN/CLOSE  './external/botm_011.dat'  FACTOR  1.0
    OPEN/CLOSE  './external/botm_012.dat'  FACTOR  1.0
  idomain  LAYERED
    OPEN/CLOSE  './external/idomain_000.dat'  FACTOR  1
    OPEN/CLOSE  './external/idomain_001.dat'  FACTOR  1
    OPEN/CLOSE  './external/idomain_002.dat'  FACTOR  1
    OPEN/CLOSE  './external/idomain_003.dat'  FACTOR  1
    OPEN/CLOSE  './external/idomain_004.dat'  FACTOR  1
    OPEN/CLOSE  './external/idomain_005.dat'  FACTOR  1
    OPEN/CLOSE  './external/idomain_006.dat'  FACTOR  1
    OPEN/CLOSE  './external/idomain_007.dat'  FACTOR  1
    OPEN/CLOSE  './external/idomain_008.dat'  FACTOR  1
    OPEN/CLOSE  './external/idomain_009.dat'  FACTOR  1
    OPEN/CLOSE  './external/idomain_010.dat'  FACTOR  1
    OPEN/CLOSE  './external/idomain_011.dat'  FACTOR  1
    OPEN/CLOSE  './external/idomain_012.dat'  FACTOR  1
END griddata

