# shellmound model version 0.post258.dev0+g2de0f7d
# File generated by Flopy version 3.3.4 on 05/19/2021 at 11:49:15.
# via modflow-setup version 0.post258.dev0+g2de0f7d at 2021-05-19 11:49:16
BEGIN options
  READASARRAYS
  PRINT_INPUT
  SAVE_FLOWS
END options

BEGIN period  1
  irch
    OPEN/CLOSE  './external/irch.dat'  FACTOR  1
  recharge
    OPEN/CLOSE  './external/rch_000.dat'  FACTOR  1.0
END period  1

BEGIN period  2
  recharge
    OPEN/CLOSE  './external/rch_001.dat'  FACTOR  1.0
END period  2

BEGIN period  3
  recharge
    OPEN/CLOSE  './external/rch_002.dat'  FACTOR  1.0
END period  3

BEGIN period  4
  recharge
    OPEN/CLOSE  './external/rch_003.dat'  FACTOR  1.0
END period  4

BEGIN period  5
  recharge
    OPEN/CLOSE  './external/rch_004.dat'  FACTOR  1.0
END period  5

BEGIN period  6
  recharge
    OPEN/CLOSE  './external/rch_005.dat'  FACTOR  1.0
END period  6

BEGIN period  7
  recharge
    OPEN/CLOSE  './external/rch_006.dat'  FACTOR  1.0
END period  7

BEGIN period  8
  recharge
    OPEN/CLOSE  './external/rch_007.dat'  FACTOR  1.0
END period  8

BEGIN period  9
  recharge
    OPEN/CLOSE  './external/rch_008.dat'  FACTOR  1.0
END period  9

BEGIN period  10
  recharge
    OPEN/CLOSE  './external/rch_009.dat'  FACTOR  1.0
END period  10

BEGIN period  11
  recharge
    OPEN/CLOSE  './external/rch_010.dat'  FACTOR  1.0
END period  11

BEGIN period  12
  recharge
    OPEN/CLOSE  './external/rch_011.dat'  FACTOR  1.0
END period  12

BEGIN period  13
  recharge
    OPEN/CLOSE  './external/rch_012.dat'  FACTOR  1.0
END period  13

BEGIN period  14
  recharge
    OPEN/CLOSE  './external/rch_013.dat'  FACTOR  1.0
END period  14

BEGIN period  15
  recharge
    OPEN/CLOSE  './external/rch_014.dat'  FACTOR  1.0
END period  15

BEGIN period  16
  recharge
    OPEN/CLOSE  './external/rch_015.dat'  FACTOR  1.0
END period  16

BEGIN period  17
  recharge
    OPEN/CLOSE  './external/rch_016.dat'  FACTOR  1.0
END period  17

BEGIN period  18
  recharge
    OPEN/CLOSE  './external/rch_017.dat'  FACTOR  1.0
END period  18

BEGIN period  19
  recharge
    OPEN/CLOSE  './external/rch_018.dat'  FACTOR  1.0
END period  19

